data_image0
_chemical_formula_structural       NC5NC3F3CH3C6NH7C6OCH6Zn2C4O8
_chemical_formula_sum              "N3 C26 F3 H16 O9 Zn2"
_cell_length_a       13.85151926108384
_cell_length_b       9.274771166103582
_cell_length_c       9.273891588657152
_cell_angle_alpha    85.97469330815719
_cell_angle_beta     89.68013377981825
_cell_angle_gamma    90.59705350001695

_space_group_name_H-M_alt    "P 1"
_space_group_IT_number       1

loop_
  _space_group_symop_operation_xyz
  'x, y, z'

loop_
  _atom_site_type_symbol
  _atom_site_label
  _atom_site_symmetry_multiplicity
  _atom_site_fract_x
  _atom_site_fract_y
  _atom_site_fract_z
  _atom_site_occupancy
  N   N1        1.0  0.9259499266972218  0.5642844012148418  0.4072195271328187  1.0000
  C   C1        1.0  0.8533274652614005  0.5557662051000725  0.46969410889438507  1.0000
  C   C2        1.0  0.7629793927483368  0.54516840432608  0.5474214259426824  1.0000
  C   C3        1.0  0.6757952477813446  0.5537102916496195  0.4718903081031658  1.0000
  C   C4        1.0  0.5879274032263311  0.5451683909965456  0.5474214059110096  1.0000
  C   C5        1.0  0.49830821290930993  0.5557662221021935  0.46969420291927966  1.0000
  N   N2        1.0  0.4262717404318209  0.5642843642693793  0.4072196326404127  1.0000
  C   C6        1.0  0.587226822667138  0.5270880011747512  0.6986614685270338  1.0000
  C   C7        1.0  0.6743931216759183  0.5153669987041706  0.7754603546344951  1.0000
  C   C8        1.0  0.6736853626095558  0.5012575838320991  0.9384873571108945  1.0000
  F   F1        1.0  0.7539075424996353  0.42689212787689756  0.9902188654678628  1.0000
  F   F2        1.0  0.5920387272603196  0.4268920981667903  0.9902189648068291  1.0000
  F   F3        1.0  0.67444407425469  0.6375682997507861  0.9899512751971745  1.0000
  C   C9        1.0  0.7622971487705739  0.5270879060774734  0.698661488315429  1.0000
  H   H1        1.0  0.6763316968705549  0.5678690061245375  0.35479459452007966  1.0000
  H   H2        1.0  0.5188555768037342  0.5224291209991729  0.756315049408562  1.0000
  H   H3        1.0  0.830172329908611  0.5224290397120468  0.7563150085212402  1.0000
  C   C10       1.0  0.17314864028636917  0.14069493704181177  0.4080051973856913  1.0000
  C   C11       1.0  0.15140681136862782  0.22284031956053504  0.27910918680347674  1.0000
  C   C12       1.0  0.13868167899938347  0.1566201837739949  0.14939538791162077  1.0000
  C   C13       1.0  0.14775243905229352  0.0068687126118540595  0.1476380704542435  1.0000
  C   C14       1.0  0.16771556037730728  0.923387920731963  0.2747634265492651  1.0000
  C   C15       1.0  0.17908214427146857  0.9878629068588155  0.40644642824855026  1.0000
  N   N3        1.0  0.11753819776983154  0.24185227816442653  0.019082735576797284  1.0000
  H   H4        1.0  0.2806388916859948  0.2232023737778701  0.7234533962904133  1.0000
  H   H5        1.0  0.1465411150152225  0.339428030450525  0.2785555148628869  1.0000
  H   H6        1.0  0.1384186590639389  0.9544807158465549  0.04783638911522424  1.0000
  H   H7        1.0  0.17198530241369214  0.8071866473446707  0.27063540815366016  1.0000
  H   H8        1.0  0.2475603548940691  0.6927336449017021  0.6210628929945579  1.0000
  H   H9        1.0  0.11088679522439439  0.3539257569184533  0.019035919384317028  1.0000
  H   H10       1.0  0.10828659566716836  0.1935028835867534  0.9216514629002427  1.0000
  C   C16       1.0  0.17767018208363936  0.5604586413282524  0.9839574951778491  1.0000
  C   C17       1.0  0.2571578600213955  0.6213849088547565  0.05241910070325506  1.0000
  C   C18       1.0  0.3312448926911258  0.6930823445373557  0.9724774404657975  1.0000
  C   C19       1.0  0.32610991018045166  0.7042149582861874  0.8210163428219968  1.0000
  C   C20       1.0  0.24864435477540098  0.6424152810245255  0.7512141467586129  1.0000
  C   C21       1.0  0.1745605660766954  0.5680991116329314  0.8304940768816103  1.0000
  O   O1        1.0  0.40808362827668154  0.7522326120850042  0.04757522124638824  1.0000
  C   C22       1.0  0.48811472284343377  0.8281465558715558  0.9803591779580699  1.0000
  H   H11       1.0  0.9474182968071918  0.471863527002629  0.09513772018380195  1.0000
  H   H12       1.0  0.3821085917612598  0.7592966008049364  0.7559928633624211  1.0000
  H   H13       1.0  0.02096909932158609  0.5027335340002408  0.5551716820569861  1.0000
  H   H14       1.0  0.4628837697001929  0.9257591727968479  0.9157839878124697  1.0000
  H   H15       1.0  0.5278670536036723  0.7565573917969867  0.9100782405959222  1.0000
  H   H16       1.0  0.5377748669005602  0.8626251246789796  0.06513928844460781  1.0000
  Zn  Zn1       1.0  0.07033193728432631  0.5642806147086941  0.40722787260317417  1.0000
  Zn  Zn2       1.0  0.2818895868148861  0.5642764913472063  0.4072230610515992  1.0000
  C   C23       1.0  0.17510596514333185  0.5609084956408834  0.670491128282626  1.0000
  C   C24       1.0  0.17711788138648443  0.5676504316747533  0.14395994344138097  1.0000
  C   C25       1.0  0.1779767033960713  0.8276782555458946  0.40099729809730544  1.0000
  C   C26       1.0  0.17424705852356426  0.30087893942414995  0.41345385366274473  1.0000
  O   O2        1.0  0.2572175056065724  0.5700562044342641  0.1976564123394615  1.0000
  O   O3        1.0  0.2555736957087147  0.5584985014148738  0.6167905946115915  1.0000
  O   O4        1.0  0.257890765367351  0.7739184698504251  0.3991724172882567  1.0000
  O   O5        1.0  0.25490036422689766  0.3546362453434191  0.41527448157264146  1.0000
  O   O6        1.0  0.09732108767811058  0.7739208607153902  0.3991764520761891  1.0000
  O   O7        1.0  0.0950040304354505  0.55850262462834  0.6167945493575384  1.0000
  O   O8        1.0  0.09664784641110762  0.5700602617406498  0.1976586342327302  1.0000
  O   O9        1.0  0.09433070455826688  0.35464029330800745  0.41527681155012286  1.0000
