data_image0
_chemical_formula_structural       NC9NC3OH6C6SCOC6H10C7OC6H9Zn2C4O8
_chemical_formula_sum              "N2 C42 O11 H25 S1 Zn2"
_cell_length_a       15.78231758774541
_cell_length_b       10.302038109246572
_cell_length_c       10.299382801718284
_cell_angle_alpha    85.57853228507349
_cell_angle_beta     90.06446718373022
_cell_angle_gamma    89.64990665055792

_space_group_name_H-M_alt    "P 1"
_space_group_IT_number       1

loop_
  _space_group_symop_operation_xyz
  'x, y, z'

loop_
  _atom_site_type_symbol
  _atom_site_label
  _atom_site_symmetry_multiplicity
  _atom_site_fract_x
  _atom_site_fract_y
  _atom_site_fract_z
  _atom_site_occupancy
  N   N1        1.0  0.7984725285162637  0.41265550185139555  0.5700867048536424  1.0000
  C   C1        1.0  0.7499188554825075  0.33061630222374894  0.5941564325255926  1.0000
  C   C2        1.0  0.6896376729714218  0.22878571412396978  0.6240331656068366  1.0000
  C   C3        1.0  0.7092665447685135  0.10087007031564664  0.6614837472170816  1.0000
  C   C4        1.0  0.632519608586754  0.038877156427246096  0.6797083162367015  1.0000
  C   C5        1.0  0.5707639001453387  0.133549380676665  0.6520318799167575  1.0000
  C   C6        1.0  0.47766828684375273  0.11604595116657856  0.6572405962245467  1.0000
  C   C7        1.0  0.4239514987942763  0.22336875166958906  0.6257008548041582  1.0000
  C   C8        1.0  0.3357412134446378  0.20901636049647054  0.6299790379993134  1.0000
  C   C9        1.0  0.2813287536175157  0.3194617719521988  0.5975133850118101  1.0000
  N   N2        1.0  0.23759402720469333  0.4082456331166977  0.5714139011073849  1.0000
  C   C10       1.0  0.3005663863337162  0.08718143428239289  0.6658459369863519  1.0000
  C   C11       1.0  0.3533522994900085  0.9800805214988408  0.6973248279736988  1.0000
  C   C12       1.0  0.44137681848834837  0.9940386292174267  0.6931629014384695  1.0000
  O   O1        1.0  0.6072519063338059  0.24574825363535946  0.6191342462518474  1.0000
  H   H1        1.0  0.7717155925396546  0.05773231643880704  0.6740625771726689  1.0000
  H   H2        1.0  0.6237605925173593  0.9369445236235298  0.7095669268218461  1.0000
  H   H3        1.0  0.45058198999248833  0.3181779264533348  0.5977853260747641  1.0000
  H   H4        1.0  0.23244687788741292  0.07502570438948905  0.6694672132500952  1.0000
  H   H5        1.0  0.3259916635666568  0.8859195115198975  0.7250499352566795  1.0000
  H   H6        1.0  0.4804408689609192  0.9092071654896654  0.7181046498500934  1.0000
  C   C13       1.0  0.017957078790306946  0.029172895700080085  0.5707099054199666  1.0000
  C   C14       1.0  0.9455398374699628  0.03465479462215116  0.4909716479879592  1.0000
  C   C15       1.0  0.9099066917074146  0.9204197551162175  0.45081448873524654  1.0000
  C   C16       1.0  0.9458123804588486  0.7995194491558935  0.4909184656803848  1.0000
  C   C17       1.0  0.018117585895398348  0.7917181985216966  0.5708019647013103  1.0000
  C   C18       1.0  0.053860677299814  0.9072013132769888  0.6101985675936269  1.0000
  S   S1        1.0  0.8179860256858886  0.9288585628280577  0.3479278246315744  1.0000
  C   C19       1.0  0.8803127006122863  0.9366996638539219  0.20169456202541514  1.0000
  O   O2        1.0  0.9007532916256558  0.8312179596461462  0.15540640071029088  1.0000
  C   C20       1.0  0.9082715209744102  0.0625727799366984  0.13628166046946763  1.0000
  C   C21       1.0  0.968200298516052  0.06429116828196113  0.034956487087573374  1.0000
  C   C22       1.0  0.9954457209655447  0.1823421534909475  0.9733158794682687  1.0000
  C   C23       1.0  0.9632210054086016  0.29990990287584096  0.011719664804352936  1.0000
  C   C24       1.0  0.9035473473569116  0.2996612818702886  0.11169256830183505  1.0000
  C   C25       1.0  0.8760194314901097  0.18191683131829753  0.1736524939736414  1.0000
  H   H7        1.0  0.15435692980258076  0.22614520319507544  0.7211756389194981  1.0000
  H   H8        1.0  0.9167195771589205  0.1274604285451375  0.45960881672794124  1.0000
  H   H9        1.0  0.9172651998113533  0.7120487156009488  0.45906792983163397  1.0000
  H   H10       1.0  0.10968963396598225  0.9020548368376325  0.6716681211806979  1.0000
  H   H11       1.0  0.0457558483099736  0.4614360948234594  0.6008520061037286  1.0000
  H   H12       1.0  0.9944179102489485  0.974457530029465  0.003738222724507297  1.0000
  H   H13       1.0  0.04168302179840652  0.18261678614820842  0.8957582001466208  1.0000
  H   H14       1.0  0.9844106255931431  0.3911926007252886  0.9639095306623653  1.0000
  H   H15       1.0  0.8784405996907301  0.39086632354213985  0.14115354013625422  1.0000
  H   H16       1.0  0.8292860364049524  0.18503467783518965  0.250076338560284  1.0000
  C   C26       1.0  0.01812182587343503  0.41037148647807065  0.18938637992601046  1.0000
  C   C27       1.0  0.10713821897890224  0.4103408037286862  0.18835186913959773  1.0000
  C   C28       1.0  0.15203525026587306  0.4088376086065723  0.07077179613022366  1.0000
  C   C29       1.0  0.1069317487409064  0.41037090725368075  0.9531056797877975  1.0000
  C   C30       1.0  0.017952776559840174  0.4105196047833335  0.9521254207328926  1.0000
  C   C31       1.0  0.9740638833631708  0.4101743930170223  0.07083311355999622  1.0000
  C   C32       1.0  0.24602528182569083  0.4101888317131843  0.0694276526608557  1.0000
  O   O3        1.0  0.28337129734333866  0.4705081949964265  0.975020958984163  1.0000
  C   C33       1.0  0.29764833485386744  0.34310308094753195  0.17508184783045921  1.0000
  C   C34       1.0  0.37730005907843456  0.3927509500970598  0.20643006024087796  1.0000
  C   C35       1.0  0.4268573646944127  0.3293343900821688  0.3048266952451035  1.0000
  C   C36       1.0  0.39780040489449586  0.21534985577966378  0.3720890912544969  1.0000
  C   C37       1.0  0.3192719462215574  0.16424408815972  0.34072108112720784  1.0000
  C   C38       1.0  0.26947318533796505  0.2272844508623264  0.24242573160110556  1.0000
  H   H17       1.0  0.8501349901538063  0.41244059998103005  0.398503442901255  1.0000
  H   H18       1.0  0.1416575525869591  0.41294391651221996  0.27905539801899065  1.0000
  H   H19       1.0  0.14145919577765886  0.4101954761950086  0.8622585725926765  1.0000
  H   H20       1.0  0.9054389514017278  0.41019884562147  0.07082640822760666  1.0000
  H   H21       1.0  0.40084268452605176  0.4811664379732208  0.1555763819213123  1.0000
  H   H22       1.0  0.4878576526807088  0.3685960402236368  0.328888540900212  1.0000
  H   H23       1.0  0.43628131593133457  0.16634773687639393  0.44814295180973723  1.0000
  H   H24       1.0  0.2971084205763188  0.07535895068892605  0.39220763486233845  1.0000
  H   H25       1.0  0.20948962939095195  0.1847312034005326  0.21818034366791236  1.0000
  Zn  Zn1       1.0  0.9251935014558275  0.41137944230155327  0.5704771980837149  1.0000
  Zn  Zn2       1.0  0.11087302118988024  0.409511097794546  0.5710340229349298  1.0000
  C   C39       1.0  0.01798177728416439  0.405319179343135  0.8079508136405266  1.0000
  C   C40       1.0  0.018086773292645294  0.4155729786028399  0.33356054112300665  1.0000
  C   C41       1.0  0.018084008431515034  0.6475799343272326  0.5656093479070351  1.0000
  C   C42       1.0  0.01798447844222251  0.17331066434059372  0.5759020757169684  1.0000
  O   O4        1.0  0.08853941819637384  0.4166039554873295  0.38215801811342875  1.0000
  O   O5        1.0  0.0884555914036586  0.40286919264777166  0.7597755798632633  1.0000
  O   O6        1.0  0.08853719415484851  0.5984978259230826  0.5640831289916987  1.0000
  O   O7        1.0  0.08845775210887358  0.22097533211864745  0.5778503714212792  1.0000
  O   O8        1.0  0.9476087071735281  0.5999152086164383  0.5636608494005173  1.0000
  O   O9        1.0  0.9475271047621052  0.40428813525826185  0.7593532312147643  1.0000
  O   O10       1.0  0.9476109319476462  0.41802285254892246  0.3817341080563861  1.0000
  O   O11       1.0  0.947529265833151  0.2223942199125977  0.5774265587311027  1.0000
