data_image0
_chemical_formula_structural       NC10NC2SCH8C7OClH5C7ONC2H10Zn2C4O8
_chemical_formula_sum              "N3 C33 S1 H23 O10 Cl1 Zn2"
_cell_length_a       19.276177435061857
_cell_length_b       10.29851198555357
_cell_length_c       10.299292011521983
_cell_angle_alpha    85.57409494147583
_cell_angle_beta     90.20993198042908
_cell_angle_gamma    89.88801624932663

_space_group_name_H-M_alt    "P 1"
_space_group_IT_number       1

loop_
  _space_group_symop_operation_xyz
  'x, y, z'

loop_
  _atom_site_type_symbol
  _atom_site_label
  _atom_site_symmetry_multiplicity
  _atom_site_fract_x
  _atom_site_fract_y
  _atom_site_fract_z
  _atom_site_occupancy
  N   N1        1.0  0.6534555191956752  0.41829669645919876  0.572470654612137  1.0000
  C   C1        1.0  0.5934713790380438  0.4191514915755485  0.5765888627046467  1.0000
  C   C2        1.0  0.5187747206810784  0.4202756054804049  0.581721931183588  1.0000
  C   C3        1.0  0.4838797545928764  0.3073713053853615  0.5915494531839827  1.0000
  C   C4        1.0  0.4073872351915476  0.3030427697769882  0.5989944666857789  1.0000
  C   C5        1.0  0.369685655619341  0.4053298851001643  0.6321573294975547  1.0000
  C   C6        1.0  0.2928795500838288  0.4066224300661822  0.6198016990896544  1.0000
  C   C7        1.0  0.2596626813053062  0.35029602017876926  0.5158641034856501  1.0000
  C   C8        1.0  0.1873643730764558  0.3529097002608783  0.5045256528843176  1.0000
  C   C9        1.0  0.1472545603128831  0.4120036901695532  0.5964748033017611  1.0000
  C   C10       1.0  0.07282055735557133  0.4146428949771357  0.5846951960427282  1.0000
  N   N2        1.0  0.0129811751717672  0.41676455600433115  0.5752252991468587  1.0000
  C   C11       1.0  0.17972553866195762  0.4687813441245341  0.699749033168833  1.0000
  C   C12       1.0  0.2520231489521985  0.46638780300254445  0.7112521065128781  1.0000
  S   S1        1.0  0.41309169590240563  0.5422313260842464  0.6966707727382255  1.0000
  C   C13       1.0  0.4806876133001609  0.5483195545338366  0.5735410972904413  1.0000
  H   H1        1.0  0.5116957960643036  0.2158796655331394  0.5905410269864393  1.0000
  H   H2        1.0  0.381996201149412  0.2150401884161306  0.5727796372099856  1.0000
  H   H3        1.0  0.2895522887716772  0.30588795316249007  0.4422241268199112  1.0000
  H   H4        1.0  0.16278709728247798  0.3092627985363343  0.4237664509917758  1.0000
  H   H5        1.0  0.1491683836457115  0.5147760794051119  0.7715272213337534  1.0000
  H   H6        1.0  0.2758153430854258  0.5099730975634298  0.7927056147631657  1.0000
  H   H7        1.0  0.4569051039916047  0.5668259157827026  0.47540066667841313  1.0000
  H   H8        1.0  0.5165773087852523  0.6296780260406782  0.5902821061818284  1.0000
  C   C14       1.0  0.8332143750929893  0.036117435390493155  0.5738626222602063  1.0000
  C   C15       1.0  0.8940407643837227  0.040677250067519655  0.4990530507333122  1.0000
  C   C16       1.0  0.9249973005845324  0.9258866812177191  0.4609800689537711  1.0000
  C   C17       1.0  0.8940724324810246  0.8054199034402635  0.4990140806126804  1.0000
  C   C18       1.0  0.8332289932962224  0.7989337769105985  0.5738446269021795  1.0000
  C   C19       1.0  0.8031584183777795  0.9147813569683291  0.610828074147254  1.0000
  C   C20       1.0  0.989332690037788  0.9329167620078774  0.3818550704324779  1.0000
  O   O1        1.0  0.01643697581397507  0.04158587654026169  0.34851838849558026  1.0000
  Cl  Cl1       1.0  0.030187074797011885  0.7925149941820663  0.33161185571247076  1.0000
  H   H9        1.0  0.8099481474615344  0.36186624681582463  0.602477091874312  1.0000
  H   H10       1.0  0.9174082631040181  0.13400072376594951  0.47031354064165165  1.0000
  H   H11       1.0  0.9171836728448317  0.7161795304471217  0.4705898917866671  1.0000
  H   H12       1.0  0.7562357697371713  0.9104956724769337  0.6685381425180197  1.0000
  H   H13       1.0  0.809894645526112  0.46893531056013715  0.6025402861506881  1.0000
  C   C21       1.0  0.8332730025706819  0.41742692597752246  0.1924828350346124  1.0000
  C   C22       1.0  0.8910290657705812  0.5005779156692567  0.18550368262592132  1.0000
  C   C23       1.0  0.920575388956302  0.5419847118773193  0.0648324712314663  1.0000
  C   C24       1.0  0.8908995267156977  0.5007814287650232  0.9502231329724373  1.0000
  C   C25       1.0  0.8331703494182616  0.4176243026065682  0.9552244447840206  1.0000
  C   C26       1.0  0.8047805419445336  0.3761714854516802  0.07685028906217406  1.0000
  C   C27       1.0  0.9814254693235476  0.6301567843765479  0.05701010343231361  1.0000
  O   O2        1.0  0.9911565343985577  0.7033107825972893  0.9547091776328619  1.0000
  N   N3        1.0  0.029912845207922485  0.6323660330668384  0.16303566925120247  1.0000
  C   C28       1.0  0.08510978528081625  0.7297245009635307  0.16204072210250375  1.0000
  C   C29       1.0  0.1295734177721617  0.7111726684539266  0.28490677803977005  1.0000
  H   H14       1.0  0.8108178940475657  0.38652630373097047  0.5225586659793293  1.0000
  H   H15       1.0  0.9120322172343212  0.5349673514683863  0.2741405205139098  1.0000
  H   H16       1.0  0.9133321542024452  0.5327661805475122  0.8569230651999343  1.0000
  H   H17       1.0  0.7602487727426077  0.31201265550731705  0.0814993868411078  1.0000
  H   H18       1.0  0.027180068346222885  0.5605146766724819  0.24021644547572515  1.0000
  H   H19       1.0  0.06173050477447495  0.8287466721891092  0.15621893534465703  1.0000
  H   H20       1.0  0.11861828221124582  0.7211010301345645  0.0755236734016098  1.0000
  H   H21       1.0  0.09707638508003849  0.720872570889285  0.37248932907550514  1.0000
  H   H22       1.0  0.1543049539945263  0.6133649814886206  0.2914633242101352  1.0000
  H   H23       1.0  0.17084946924243163  0.7863869531491059  0.2819974797120397  1.0000
  Zn  Zn1       1.0  0.757206866150777  0.41785107993540427  0.573273092145248  1.0000
  Zn  Zn2       1.0  0.9092298478940545  0.41719955213960347  0.5744335233661577  1.0000
  C   C30       1.0  0.8331881088341185  0.41241272177310684  0.8110500448425308  1.0000
  C   C31       1.0  0.8332502653111715  0.4226395420299602  0.33665671076919734  1.0000
  C   C32       1.0  0.8332233460269154  0.6547439399403661  0.5686728154131742  1.0000
  C   C33       1.0  0.8332149762043587  0.18030676361929338  0.5790340090783354  1.0000
  O   O3        1.0  0.8909345636678198  0.42413602579305304  0.385483158244609  1.0000
  O   O4        1.0  0.8908857360798152  0.41042076355539175  0.7631039639884565  1.0000
  O   O5        1.0  0.8909134126620984  0.6061062906045019  0.5673826303967198  1.0000
  O   O6        1.0  0.8909068352236735  0.2284505082323673  0.5812043940650016  1.0000
  O   O7        1.0  0.7755298269431762  0.606600124066387  0.5665022210435742  1.0000
  O   O8        1.0  0.7755021503969269  0.4109161574844306  0.762223485352701  1.0000
  O   O9        1.0  0.7755509782403366  0.42463137405662743  0.3846011182018809  1.0000
  O   O10       1.0  0.775523249780072  0.22894584723126402  0.5803224513907884  1.0000
