data_image0
_chemical_formula_structural       NC9NC3OH6C7NC2NH8C8NH7Zn2C4O8
_chemical_formula_sum              "N5 C33 O9 H21 Zn2"
_cell_length_a       15.78231758774541
_cell_length_b       9.273995741505848
_cell_length_c       9.274266800404106
_cell_angle_alpha    86.13411906663325
_cell_angle_beta     89.63778846235708
_cell_angle_gamma    90.21461439936415

_space_group_name_H-M_alt    "P 1"
_space_group_IT_number       1

loop_
  _space_group_symop_operation_xyz
  'x, y, z'

loop_
  _atom_site_type_symbol
  _atom_site_label
  _atom_site_symmetry_multiplicity
  _atom_site_fract_x
  _atom_site_fract_y
  _atom_site_fract_z
  _atom_site_occupancy
  N   N1        1.0  0.8144669231115128  0.5573798907506713  0.4165936254261011  1.0000
  C   C1        1.0  0.7652697995831108  0.46645771975926187  0.44309175992746974  1.0000
  C   C2        1.0  0.7041899369081107  0.35360120784421195  0.4759827746943699  1.0000
  C   C3        1.0  0.7228159219474749  0.211834581312762  0.5172110464446997  1.0000
  C   C4        1.0  0.6455825868593589  0.1431295450986079  0.5372746310480248  1.0000
  C   C5        1.0  0.5845689296585586  0.24805341740835155  0.5068068116333653  1.0000
  C   C6        1.0  0.49133567840186554  0.22865536092668262  0.5125417043728255  1.0000
  C   C7        1.0  0.43846089696992485  0.34759834773108667  0.4778194302977292  1.0000
  C   C8        1.0  0.3501377171489864  0.3316924660813629  0.4825298530787106  1.0000
  C   C9        1.0  0.2965918024600674  0.4540960921422191  0.4467881630637607  1.0000
  N   N2        1.0  0.25355367276875723  0.5524928045618502  0.41805502645299053  1.0000
  C   C10       1.0  0.31400672590895257  0.19666658459170666  0.5220164845250532  1.0000
  C   C11       1.0  0.3659523521903907  0.0779695453391247  0.5566718075594298  1.0000
  C   C12       1.0  0.45408667042203144  0.09343845631835279  0.5520893758713796  1.0000
  O   O1        1.0  0.6219368345914449  0.3724010335424275  0.4705903077069596  1.0000
  H   H1        1.0  0.7849270063681644  0.16402536574935356  0.5310582566398047  1.0000
  H   H2        1.0  0.6360243228804906  0.030159549653389062  0.5701452581462513  1.0000
  H   H3        1.0  0.4658354762484078  0.4526723862804005  0.44708658860743694  1.0000
  H   H4        1.0  0.24579161198254543  0.18319511173763006  0.5260036118167042  1.0000
  H   H5        1.0  0.3378527131094314  0.9736138509744287  0.5871950137764047  1.0000
  H   H6        1.0  0.4924851145957628  0.9994221108619008  0.5795479894752319  1.0000
  C   C13       1.0  0.03148526230467463  0.13146761746949442  0.41626286320390826  1.0000
  C   C14       1.0  0.04695693356071315  0.2135587730377393  0.28595034107938094  1.0000
  C   C15       1.0  0.06998515080702948  0.1472555165034033  0.16106983742227524  1.0000
  C   C16       1.0  0.07849478775344121  0.9967284430443019  0.1629357056235086  1.0000
  C   C17       1.0  0.06124946138514595  0.9133705199887862  0.2920481675080788  1.0000
  C   C18       1.0  0.03654329592402572  0.9783939521147682  0.4183982059146425  1.0000
  C   C19       1.0  0.10394040250947434  0.9284481905453594  0.029063971164894335  1.0000
  N   N3        1.0  0.10762536000677153  0.0017141951354118338  0.8980888703796022  1.0000
  C   C20       1.0  0.13345317396142908  0.9028626563770059  0.807513252982786  1.0000
  C   C21       1.0  0.14519270808781548  0.7723886464660222  0.8840784652137881  1.0000
  N   N4        1.0  0.1266686418253704  0.7886338081420291  0.023394399659712573  1.0000
  H   H7        1.0  0.9618285629449612  0.39839288125817063  0.6234965432855721  1.0000
  H   H8        1.0  0.04329163208648886  0.3304087495265937  0.2812888247303149  1.0000
  H   H9        1.0  0.08239042442325162  0.21458659042134176  0.06318612992131079  1.0000
  H   H10       1.0  0.06410927223341678  0.7967914961086442  0.2940553717307508  1.0000
  H   H11       1.0  0.03655636212796007  0.6821520248185033  0.658118028552755  1.0000
  H   H12       1.0  0.14335220216102837  0.9249164104818687  0.6926162333146779  1.0000
  H   H13       1.0  0.16619664191960493  0.6727244712255569  0.8414151688447165  1.0000
  H   H14       1.0  0.13088822455678906  0.7086749346514446  0.10767054693238953  1.0000
  C   C22       1.0  0.03594408892835019  0.5517561674808769  0.9940183588291852  1.0000
  C   C23       1.0  0.9860925704124626  0.4490728892531537  0.07474369610852197  1.0000
  C   C24       1.0  0.931181178513357  0.3576618269760281  0.006433743559774771  1.0000
  C   C25       1.0  0.9243008718624334  0.3675404153772641  0.8557374991685408  1.0000
  C   C26       1.0  0.9752949179451782  0.46676318001487194  0.7737010894553018  1.0000
  C   C27       1.0  0.03208444319982348  0.5581054520492752  0.8406427017724357  1.0000
  C   C28       1.0  0.8659915402702599  0.2674631093606199  0.7822096896963756  1.0000
  C   C29       1.0  0.911083735655632  0.13511662468307262  0.7508148995171395  1.0000
  N   N5        1.0  0.9466781076546854  0.030664626203402934  0.7260343703918699  1.0000
  H   H15       1.0  0.13117152846749347  0.8680933007371066  0.0745644781065058  1.0000
  H   H16       1.0  0.9882110768941881  0.4415803656727047  0.1917460881620583  1.0000
  H   H17       1.0  0.8933245219325829  0.27990099005515545  0.07135616736143557  1.0000
  H   H18       1.0  0.97201507956172  0.4700902103686384  0.6568074080260147  1.0000
  H   H19       1.0  0.09925973233136282  0.7682501085579778  0.5450537902379327  1.0000
  H   H20       1.0  0.8421403979820843  0.3205340254378602  0.6794933515703239  1.0000
  H   H21       1.0  0.8102470349745162  0.2384523597905499  0.852111610127039  1.0000
  Zn  Zn1       1.0  0.9411778096985389  0.5559657936998408  0.4170236620868316  1.0000
  Zn  Zn2       1.0  0.12684263367776516  0.5538952204264568  0.41763674402830964  1.0000
  C   C30       1.0  0.03277781821756486  0.5511605167392719  0.6805981114628208  1.0000
  C   C31       1.0  0.035244662834347205  0.5587022953464806  0.1540624474200365  1.0000
  C   C32       1.0  0.03560904521320781  0.818263858266402  0.4122502478243816  1.0000
  C   C33       1.0  0.03241336178676324  0.2915972225558033  0.42241038333452563  1.0000
  O   O2        1.0  0.10546872457523526  0.5602414163553315  0.20800735111152374  1.0000
  O   O3        1.0  0.10346905728002538  0.5480487875383346  0.6271181050743475  1.0000
  O   O4        1.0  0.10575435223276347  0.7637381356378935  0.41042530722474224  1.0000
  O   O5        1.0  0.10318336682201523  0.3445520784675214  0.42470004069391876  1.0000
  O   O6        1.0  0.9648370131960414  0.7653089363668741  0.40996036520442947  1.0000
  O   O7        1.0  0.962551728936996  0.5496213202389603  0.6266530905611918  1.0000
  O   O8        1.0  0.9645514038894716  0.5618138858058703  0.20754060334700153  1.0000
  O   O9        1.0  0.9622660455784853  0.3461245384144096  0.4242334009798139  1.0000
