data_image0
_chemical_formula_structural       NC5NC3F3CH3C6BrH5C7F3H5Zn2C4O8
_chemical_formula_sum              "N2 C26 F6 H13 Br1 Zn2 O8"
_cell_length_a       13.85151926108384
_cell_length_b       9.276564384272257
_cell_length_c       10.299327507215196
_cell_angle_alpha    85.50433020317719
_cell_angle_beta     89.98119703014584
_cell_angle_gamma    90.58593481197379

_space_group_name_H-M_alt    "P 1"
_space_group_IT_number       1

loop_
  _space_group_symop_operation_xyz
  'x, y, z'

loop_
  _atom_site_type_symbol
  _atom_site_label
  _atom_site_symmetry_multiplicity
  _atom_site_fract_x
  _atom_site_fract_y
  _atom_site_fract_z
  _atom_site_occupancy
  N   N1        1.0  0.9202422339874766  0.5784496776929289  0.5662417287838054  1.0000
  C   C1        1.0  0.8478367431259675  0.5693614431792542  0.6225257623786832  1.0000
  C   C2        1.0  0.7577586130391701  0.5580544330751758  0.6925511519629226  1.0000
  C   C3        1.0  0.6703123824767072  0.56728597041999  0.624502784033321  1.0000
  C   C4        1.0  0.5827066234496944  0.5580544199328024  0.6925511339019215  1.0000
  C   C5        1.0  0.49281749109652245  0.56936145931532  0.6225258471131943  1.0000
  N   N2        1.0  0.4205640480914456  0.5784496397909398  0.5662418238167364  1.0000
  C   C6        1.0  0.5825309587463755  0.5385933729804124  0.8288072133736034  1.0000
  C   C7        1.0  0.6699641391344803  0.5261719736859447  0.8979950606473087  1.0000
  C   C8        1.0  0.6698215022582517  0.5105728309599207  0.04487507156933934  1.0000
  F   F1        1.0  0.7502321399055281  0.4357537365029307  0.0914208383028601  1.0000
  F   F2        1.0  0.5883633250133238  0.4357537058908354  0.09142092778407963  1.0000
  F   F3        1.0  0.6707402130871961  0.6463748440249888  0.09136662831236886  1.0000
  C   C9        1.0  0.7576012849306112  0.5385932777278049  0.8288072311192147  1.0000
  H   H1        1.0  0.6704424011387669  0.5825135975529407  0.5190083727923571  1.0000
  H   H2        1.0  0.5143595219234537  0.533407568622903  0.8807507951629578  1.0000
  H   H3        1.0  0.8256762748976838  0.5334074877325603  0.8807507582500644  1.0000
  C   C10       1.0  0.16749902257311278  0.1549686580975476  0.5665738633634196  1.0000
  C   C11       1.0  0.15515610173029207  0.23848618055917334  0.44787283488217877  1.0000
  C   C12       1.0  0.15179756666481484  0.1735153749915437  0.3302805341191579  1.0000
  C   C13       1.0  0.1607610463471976  0.024108387013743075  0.3291564266231921  1.0000
  C   C14       1.0  0.1714036533918133  0.9388978112363885  0.44606249497686723  1.0000
  C   C15       1.0  0.17331641121198382  0.001919560870346601  0.5659208406801667  1.0000
  Br  Br1       1.0  0.15687639741115159  0.9357753989822449  0.16779924424705997  1.0000
  H   H4        1.0  0.13913791214598104  0.4174886249577865  0.7777178849372157  1.0000
  H   H5        1.0  0.15039239600136123  0.35514291475562043  0.4456494309671235  1.0000
  H   H6        1.0  0.14314419461305186  0.23974950424237004  0.23981581006751435  1.0000
  H   H7        1.0  0.17587117392304052  0.8226582588977911  0.4432624375900272  1.0000
  H   H8        1.0  0.226523832209228  0.7039558269972949  0.768195585697373  1.0000
  C   C16       1.0  0.17050056742337882  0.5785026979512584  0.18486574709873715  1.0000
  C   C17       1.0  0.2647143221075523  0.6363253435012797  0.17955070456385425  1.0000
  C   C18       1.0  0.31155330778093904  0.6679422904127517  0.05957133971628514  1.0000
  C   C19       1.0  0.26447051320965015  0.6361724209992548  0.9443133647816564  1.0000
  C   C20       1.0  0.17031489310041278  0.5783855730361269  0.9476290136777257  1.0000
  C   C21       1.0  0.12373625387194953  0.5504204539489821  0.06837812977420699  1.0000
  C   C22       1.0  0.4139835240985754  0.7251279528649635  0.05526492632449354  1.0000
  F   F4        1.0  0.4314253879493662  0.8093408476158386  0.15809116485206645  1.0000
  F   F5        1.0  0.47696280172766203  0.6101500536949878  0.06322253563502223  1.0000
  F   F6        1.0  0.4311600373770265  0.8093212818186594  0.9404477762435963  1.0000
  H   H9        1.0  0.9933465178816078  0.46697355929416284  0.4023038081606338  1.0000
  H   H10       1.0  0.3018765727433228  0.6566081924130795  0.26893160104782715  1.0000
  H   H11       1.0  0.30146550531751937  0.6563464968271913  0.8519177822000352  1.0000
  H   H12       1.0  0.05112046323606134  0.505856884243411  0.07166974777562453  1.0000
  H   H13       1.0  0.13473044819961966  0.5538023075546157  0.6216164340117245  1.0000
  Zn  Zn1       1.0  0.06462427390407144  0.5784458157630881  0.5662492449595883  1.0000
  Zn  Zn2       1.0  0.27618190734903036  0.5784417376085671  0.5662449059402266  1.0000
  C   C23       1.0  0.17030834914021065  0.5726627181852202  0.8034548417312151  1.0000
  C   C24       1.0  0.1705001547825132  0.5842266546840285  0.3290394351890782  1.0000
  C   C25       1.0  0.17221308824866458  0.8418286291326108  0.560868966878874  1.0000
  C   C26       1.0  0.16859533156681983  0.3150590111307323  0.5716253806196291  1.0000
  O   O1        1.0  0.2507849924339099  0.5861398278416943  0.3774238001703678  1.0000
  O   O2        1.0  0.2505908527817169  0.5707453619531573  0.755066810514883  1.0000
  O   O3        1.0  0.2521278710912642  0.7881002389241798  0.5591769991024508  1.0000
  O   O4        1.0  0.24924790202863853  0.36878496120310006  0.5733135141984138  1.0000
  O   O5        1.0  0.09155820703023809  0.7881025921715179  0.559180636696049  1.0000
  O   O6        1.0  0.09002120063370561  0.5707494478093633  0.7550703775249203  1.0000
  O   O7        1.0  0.09021534038509316  0.586143863684427  0.37742580576641666  1.0000
  O   O8        1.0  0.08867824988132099  0.36878898671636673  0.5733156171734979  1.0000
