data_image0
_chemical_formula_structural       NC5NC3OH4C7NH5C6SCH8Zn2C4O8
_chemical_formula_sum              "N3 C26 O9 H17 S1 Zn2"
_cell_length_a       13.84702359539666
_cell_length_b       9.275154477615127
_cell_length_c       10.302812801239593
_cell_angle_alpha    85.78691219350036
_cell_angle_beta     89.9855797555544
_cell_angle_gamma    89.43463511314383

_space_group_name_H-M_alt    "P 1"
_space_group_IT_number       1

loop_
  _space_group_symop_operation_xyz
  'x, y, z'

loop_
  _atom_site_type_symbol
  _atom_site_label
  _atom_site_symmetry_multiplicity
  _atom_site_fract_x
  _atom_site_fract_y
  _atom_site_fract_z
  _atom_site_occupancy
  N   N1        1.0  0.898933327806121  0.5779343453631214  0.5732741135544461  1.0000
  C   C1        1.0  0.8268464529397325  0.5692669563490491  0.6300389523523466  1.0000
  C   C2        1.0  0.737071260167421  0.5584742263770449  0.7007231371664835  1.0000
  C   C3        1.0  0.6494182931129332  0.5689006881570973  0.6324371403956495  1.0000
  C   C4        1.0  0.5616249155100623  0.5585953690333536  0.6999293902675787  1.0000
  C   C5        1.0  0.47170300922175423  0.569330221374291  0.6296243549964904  1.0000
  N   N2        1.0  0.39941743142640873  0.577960218482922  0.5731047116682495  1.0000
  C   C6        1.0  0.5614793579169569  0.5378324882276412  0.8359105136046088  1.0000
  C   C7        1.0  0.648752160521716  0.5273963073786276  0.9042577487289958  1.0000
  C   C8        1.0  0.7368614056835951  0.5376352132447423  0.8372017962423943  1.0000
  O   O1        1.0  0.8238546942097558  0.5271812163283294  0.9056673177108929  1.0000
  H   H1        1.0  0.6495356380626759  0.5849860996250016  0.5270906671987712  1.0000
  H   H2        1.0  0.49397817441377095  0.5297216555788755  0.8890300198934511  1.0000
  H   H3        1.0  0.6478562511814191  0.5113428007827967  0.009395913575620314  1.0000
  H   H4        1.0  0.8254859516086424  0.5121566274598544  0.004066101734160218  1.0000
  C   C9        1.0  0.15197456947619736  0.15455812753561582  0.571686111226767  1.0000
  C   C10       1.0  0.12546665307747684  0.23773584204945178  0.45722685112981765  1.0000
  C   C11       1.0  0.0911036182080609  0.17169564084300615  0.3488338033297804  1.0000
  C   C12       1.0  0.0826826967268619  0.021574680766529356  0.35362350699473644  1.0000
  C   C13       1.0  0.11008567380809375  0.9371893374840289  0.46547325183838223  1.0000
  C   C14       1.0  0.1463854907684632  0.0013253567222351087  0.5747039031260004  1.0000
  C   C15       1.0  0.06331089303424409  0.258455101258672  0.23299533747559045  1.0000
  N   N3        1.0  0.04097325121369934  0.3281938017911128  0.13989088248521742  1.0000
  H   H5        1.0  0.17069958952746794  0.23123015332683286  0.890357578597392  1.0000
  H   H6        1.0  0.12941059622014572  0.35469544622151394  0.4533733907703452  1.0000
  H   H7        1.0  0.055757968781140255  0.9694467132808233  0.2703168163416627  1.0000
  H   H8        1.0  0.10501457757337174  0.8207214793084772  0.4653607138931393  1.0000
  H   H9        1.0  0.16309167366504718  0.7025559751247525  0.7882214424783514  1.0000
  C   C16       1.0  0.14918005640244392  0.5779417387297752  0.19194652720372263  1.0000
  C   C17       1.0  0.11566253410098448  0.7217201842286838  0.18127268395559337  1.0000
  C   C18       1.0  0.09873770571426954  0.7930471335338101  0.058985457737377844  1.0000
  C   C19       1.0  0.11566244803784521  0.7217200328760838  0.9461215137564398  1.0000
  C   C20       1.0  0.1491799938264784  0.5779417290102915  0.9544434308198411  1.0000
  C   C21       1.0  0.1657452975125855  0.5067425228846374  0.07789838562402873  1.0000
  S   S1        1.0  0.056111748098607306  0.976852120117597  0.04684321249514345  1.0000
  C   C22       1.0  0.9294148076919764  0.9264718635843366  0.050218830447037004  1.0000
  H   H10       1.0  0.1617754265858744  0.5237401267342428  0.5232832930884712  1.0000
  H   H11       1.0  0.10234805284821258  0.7788293929618928  0.26759964604580255  1.0000
  H   H12       1.0  0.10234786087253389  0.7788291852624896  0.8522493323889901  1.0000
  H   H13       1.0  0.19158139910427208  0.3958302760376969  0.08522514699309802  1.0000
  H   H14       1.0  0.16177363337453188  0.523739378112112  0.6302677055155401  1.0000
  H   H15       1.0  0.9127135691084681  0.862331448809609  0.9663497221979096  1.0000
  H   H16       1.0  0.9127139731034632  0.8623329059223311  0.14258441928422627  1.0000
  H   H17       1.0  0.884062238792661  0.025985325475220918  0.04365211676430003  1.0000
  Zn  Zn1       1.0  0.04336225280849825  0.5779379520374586  0.573232700098476  1.0000
  Zn  Zn2       1.0  0.2549885602298936  0.5779448146504247  0.573156678514575  1.0000
  C   C23       1.0  0.14921576517744572  0.572197996771544  0.8102947333104358  1.0000
  C   C24       1.0  0.14913734680622784  0.583686589158271  0.3360947783818937  1.0000
  C   C25       1.0  0.1474369710002461  0.8412683063943517  0.5689599087257389  1.0000
  C   C26       1.0  0.15091608020367245  0.31461454731230143  0.5774296660359151  1.0000
  O   O2        1.0  0.22943413535940335  0.5856109277600903  0.38444337607627177  1.0000
  O   O3        1.0  0.22953845443687526  0.5702777790632818  0.7618880593886428  1.0000
  O   O4        1.0  0.2281009730109787  0.7875554569070655  0.5670084867842089  1.0000
  O   O5        1.0  0.23087154450350772  0.36833326022781065  0.5793228513994917  1.0000
  O   O6        1.0  0.06747919631720167  0.7875495064593006  0.5670665272326787  1.0000
  O   O7        1.0  0.06891666630517082  0.5702735608379061  0.7619460367869075  1.0000
  O   O8        1.0  0.06881234762367061  0.5856066592923646  0.38449979238793586  1.0000
  O   O9        1.0  0.07024975683188427  0.36832898144780907  0.5793793650114893  1.0000
