data_image0
_chemical_formula_structural       NC9NC3OH6C7NC2NH8C12H10Zn2C4O8
_chemical_formula_sum              "N4 C37 O9 H24 Zn2"
_cell_length_a       15.78231758774541
_cell_length_b       9.273995741505848
_cell_length_c       10.299141136925908
_cell_angle_alpha    85.68706710251877
_cell_angle_beta     90.10591436666134
_cell_angle_gamma    90.21461439936415

_space_group_name_H-M_alt    "P 1"
_space_group_IT_number       1

loop_
  _space_group_symop_operation_xyz
  'x, y, z'

loop_
  _atom_site_type_symbol
  _atom_site_label
  _atom_site_symmetry_multiplicity
  _atom_site_fract_x
  _atom_site_fract_y
  _atom_site_fract_z
  _atom_site_occupancy
  N   N1        1.0  0.8068909638654455  0.5697190543120518  0.5733930302710633  1.0000
  C   C1        1.0  0.7578206231960133  0.47859038875239124  0.5972671436834465  1.0000
  C   C2        1.0  0.6968981307270673  0.3654775638545052  0.6269010719417838  1.0000
  C   C3        1.0  0.7157213763759522  0.22338965379366618  0.6640466466807553  1.0000
  C   C4        1.0  0.6385840374273773  0.15452826614880943  0.6821234020181539  1.0000
  C   C5        1.0  0.5774246040304549  0.25968956797327114  0.6546727082307853  1.0000
  C   C6        1.0  0.4842187919165945  0.24024682063986913  0.6598396938411364  1.0000
  C   C7        1.0  0.4311778784432858  0.3594603910581293  0.6285558497213974  1.0000
  C   C8        1.0  0.34287723609067705  0.3435178020425196  0.6327998151857444  1.0000
  C   C9        1.0  0.28916031186732233  0.46619995581814067  0.6005975044561691  1.0000
  N   N2        1.0  0.24598470573568013  0.5648205797225085  0.5747097136721202  1.0000
  C   C10       1.0  0.3069351724155477  0.2081842092718376  0.66837621839912  1.0000
  C   C11       1.0  0.35904661040469577  0.08921710814123118  0.6995997414144001  1.0000
  C   C12       1.0  0.4471590035536325  0.10472172907781174  0.6954710925157632  1.0000
  O   O1        1.0  0.6146192276363318  0.38431941195027125  0.622042602813577  1.0000
  H   H1        1.0  0.7778987140982541  0.17547252973992286  0.6765226142484335  1.0000
  H   H2        1.0  0.629183046107814  0.041302116597706995  0.7117389615300387  1.0000
  H   H3        1.0  0.4584054135012196  0.4647739243868074  0.6008663779225073  1.0000
  H   H4        1.0  0.23873913528102103  0.19468166554639055  0.6719685138924332  1.0000
  H   H5        1.0  0.3310930125233128  0.9846235526437418  0.7271003372354365  1.0000
  H   H6        1.0  0.48568882609046554  0.010491404234976413  0.7202105720172847  1.0000
  C   C13       1.0  0.023907720495118565  0.14380935859354246  0.5730950223186638  1.0000
  C   C14       1.0  0.03875589902514506  0.22691601312049525  0.4556869107365471  1.0000
  C   C15       1.0  0.0611866135573593  0.1615859249306828  0.34317290311268045  1.0000
  C   C16       1.0  0.06970517792864306  0.01104431114050253  0.34485400066490635  1.0000
  C   C17       1.0  0.05307760248336077  0.9266802409514469  0.461180889934224  1.0000
  C   C18       1.0  0.028975970865906735  0.9907190529477388  0.5750189092265419  1.0000
  C   C19       1.0  0.09451027056682676  0.9438072938174795  0.2242391335687988  1.0000
  N   N3        1.0  0.09756856516713669  0.01809396070686908  0.10623405626100425  1.0000
  C   C20       1.0  0.12296301141713872  0.9199482592974085  0.024627837452789295  1.0000
  C   C21       1.0  0.13506887912462162  0.7888775922730009  0.09361105437138752  1.0000
  N   N4        1.0  0.11721138327558273  0.8040370932308  0.21913100065071214  1.0000
  H   H7        1.0  0.9552425504988847  0.4091196924975  0.7598070484380715  1.0000
  H   H8        1.0  0.03506829408009235  0.3438023158573671  0.45148700866474184  1.0000
  H   H9        1.0  0.07312355321283133  0.22967978665612532  0.25498228977037707  1.0000
  H   H10       1.0  0.05594701699221669  0.8100855753373809  0.4629893274773047  1.0000
  H   H11       1.0  0.03013599948956136  0.6926090378706394  0.7910000845263736  1.0000
  H   H12       1.0  0.13231230383666415  0.9428973824882909  0.9211086829945949  1.0000
  H   H13       1.0  0.15586868633434814  0.6895458834166677  0.055172560672568594  1.0000
  H   H14       1.0  0.12183419329432676  0.7234214728796375  0.2950615646624033  1.0000
  C   C22       1.0  0.026346277901499786  0.5673883740761002  0.1926639702883075  1.0000
  C   C23       1.0  0.114938723702465  0.5819313266674113  0.1911493737298775  1.0000
  C   C24       1.0  0.15995702275084556  0.589177632903628  0.07324770557294125  1.0000
  C   C25       1.0  0.11518537813070284  0.5816847097297285  0.955883859178326  1.0000
  C   C26       1.0  0.02653743752503733  0.5671400846405683  0.9554500170919599  1.0000
  C   C27       1.0  0.9826637168586633  0.5600790973169525  0.07428779703330601  1.0000
  C   C28       1.0  0.2536789274846687  0.604564430030742  0.07269018255445236  1.0000
  C   C29       1.0  0.3036303658394537  0.5251479015027742  0.9904388664777192  1.0000
  C   C30       1.0  0.39184050548604876  0.5398101857084185  0.9901524168264012  1.0000
  C   C31       1.0  0.43111597985102534  0.6336908596837028  0.07164084049350872  1.0000
  C   C32       1.0  0.3822607883702682  0.7131047246212244  0.15365078450776015  1.0000
  C   C33       1.0  0.29403061025944477  0.6988042288048059  0.154407805297367  1.0000
  H   H15       1.0  0.9922638241917302  0.5618676612071124  0.5207173637832694  1.0000
  H   H16       1.0  0.14924745154980068  0.5856653448629014  0.2820139180033139  1.0000
  H   H17       1.0  0.14945109694770511  0.5891992946978151  0.8645785709488147  1.0000
  H   H18       1.0  0.9143301383381717  0.5488657946372801  0.07474013411616887  1.0000
  H   H19       1.0  0.859169501084142  0.5406032581672201  0.7472777788201267  1.0000
  H   H20       1.0  0.2745802093476424  0.4504087172195795  0.9276712276027901  1.0000
  H   H21       1.0  0.42978670740578884  0.4780236540394276  0.926899299592999  1.0000
  H   H22       1.0  0.4994041771968123  0.6449002408512434  0.07123715019844479  1.0000
  H   H23       1.0  0.4127558924242354  0.7861256199748102  0.216499131158604  1.0000
  H   H24       1.0  0.2573191903965483  0.762748070933331  0.21756539279587805  1.0000
  Zn  Zn1       1.0  0.9336039080040057  0.5683016060730615  0.5737804818484276  1.0000
  Zn  Zn2       1.0  0.11927166533242033  0.5662262551769062  0.5743328523483644  1.0000
  C   C34       1.0  0.02646501368598518  0.5614423470812999  0.8112540404751203  1.0000
  C   C35       1.0  0.026412598056980912  0.5730873109376347  0.336859431361316  1.0000
  C   C36       1.0  0.02801230466157677  0.8306368688853019  0.5694797627370447  1.0000
  C   C37       1.0  0.024865233375259463  0.3038910573068534  0.5786337742181866  1.0000
  O   O2        1.0  0.09689476434920968  0.5742060502929567  0.38546235277392027  1.0000
  O   O3        1.0  0.09690037254271683  0.5587473766838433  0.7630699791500696  1.0000
  O   O4        1.0  0.09814888007828475  0.7761253676474045  0.5678355398637556  1.0000
  O   O5        1.0  0.09564619349514442  0.35682807038484876  0.5806966945143615  1.0000
  O   O6        1.0  0.957229316481996  0.7776997915749064  0.5674166394871061  1.0000
  O   O7        1.0  0.9559808192932722  0.5603235331479126  0.7626510134592994  1.0000
  O   O8        1.0  0.9559752104641238  0.575782157013814  0.38504182546983406  1.0000
  O   O9        1.0  0.95472663956927  0.3584041667600404  0.5802762645608235  1.0000
