data_image0
_chemical_formula_structural       NC5OC5NC4H8C9H8C6BrH4Zn2C4O8
_chemical_formula_sum              "N2 C33 O9 H20 Br1 Zn2"
_cell_length_a       19.189071930511275
_cell_length_b       9.275152443626249
_cell_length_c       9.27656775626242
_cell_angle_alpha    85.92079402595407
_cell_angle_beta     90.16432666077901
_cell_angle_gamma    90.56463589314393

_space_group_name_H-M_alt    "P 1"
_space_group_IT_number       1

loop_
  _space_group_symop_operation_xyz
  'x, y, z'

loop_
  _atom_site_type_symbol
  _atom_site_label
  _atom_site_symmetry_multiplicity
  _atom_site_fract_x
  _atom_site_fract_y
  _atom_site_fract_z
  _atom_site_occupancy
  N   N1        1.0  0.6612716279677189  0.5629918016769655  0.4047408132384933  1.0000
  C   C1        1.0  0.6070294270563197  0.6140201230317677  0.38427030855715194  1.0000
  C   C2        1.0  0.539559115166989  0.677490848233637  0.35880807981238716  1.0000
  C   C3        1.0  0.5302015194730463  0.7840497886807755  0.2459178464484293  1.0000
  C   C4        1.0  0.4646620112297579  0.8457859806155854  0.22132362756123689  1.0000
  C   C5        1.0  0.40781833382421223  0.8008334943876582  0.3081164026066401  1.0000
  O   O1        1.0  0.3431232733160454  0.8665789688401323  0.2809954366096359  1.0000
  C   C6        1.0  0.27787526621306485  0.8006168098179927  0.307491159744794  1.0000
  C   C7        1.0  0.22158361991836095  0.887130268563084  0.34076584347512995  1.0000
  C   C8        1.0  0.1555270900043959  0.8257204200019332  0.366302751335593  1.0000
  C   C9        1.0  0.1450975005779814  0.6769827865004518  0.3573407028866853  1.0000
  C   C10       1.0  0.07709505928300943  0.613740193717941  0.38346172105502463  1.0000
  N   N2        1.0  0.022425096516819305  0.5628953511430967  0.40446234646403023  1.0000
  C   C11       1.0  0.2009108091712666  0.5901060586305527  0.3219399209401743  1.0000
  C   C12       1.0  0.2669587692204623  0.651560191617709  0.2964512739569627  1.0000
  C   C13       1.0  0.4176658482822643  0.69529477576293  0.4227987175097918  1.0000
  C   C14       1.0  0.48319653159204873  0.6335546917804011  0.44746104908250284  1.0000
  H   H1        1.0  0.5735134190833058  0.81949114442543  0.17712693754894393  1.0000
  H   H2        1.0  0.4578888777343997  0.9282841129957715  0.13397667023694027  1.0000
  H   H3        1.0  0.22918652057769698  0.002251037923323817  0.3476647511027353  1.0000
  H   H4        1.0  0.1126512215697727  0.8941485972255682  0.3928098907907853  1.0000
  H   H5        1.0  0.19329938311170286  0.475138294059958  0.313293178071963  1.0000
  H   H6        1.0  0.30912052170938  0.5833267328330582  0.26615591470732136  1.0000
  H   H7        1.0  0.3750789977491748  0.6622986437412508  0.4943030590181104  1.0000
  H   H8        1.0  0.48998379864172115  0.5522323438736294  0.5360149525492608  1.0000
  C   C15       1.0  0.8397983409349431  0.13932626269164405  0.4060741632738518  1.0000
  C   C16       1.0  0.8144608526280094  0.22087308249451668  0.2836852209033327  1.0000
  C   C17       1.0  0.7955974197078286  0.15421497351241856  0.15899949429624205  1.0000
  C   C18       1.0  0.8017744561930922  0.0048247393961464696  0.15423391050505275  1.0000
  C   C19       1.0  0.825747540013487  0.9215800009850974  0.27558939472077726  1.0000
  C   C20       1.0  0.8439050454042908  0.9865499815692059  0.4031414364420607  1.0000
  C   C21       1.0  0.7826849307298867  0.9364150769544803  0.025113655980151247  1.0000
  C   C22       1.0  0.7667018978498314  0.8791045413142212  0.9169956863165285  1.0000
  C   C23       1.0  0.7473096428300036  0.8095563418979191  0.7858134916121906  1.0000
  H   H9        1.0  0.9403993856662802  0.22377026800053446  0.6937539614654253  1.0000
  H   H10       1.0  0.8107891951596005  0.3373871079613031  0.28323482465997163  1.0000
  H   H11       1.0  0.7768143122699918  0.2195454365850218  0.06569631230933948  1.0000
  H   H12       1.0  0.8286751084303906  0.80522980715427  0.27156765949610673  1.0000
  H   H13       1.0  0.9094077379037991  0.693161479872869  0.5999073083061139  1.0000
  H   H14       1.0  0.7600710659750965  0.6929629931554799  0.7992644230301753  1.0000
  H   H15       1.0  0.690558206439046  0.8219607906756428  0.766131930962819  1.0000
  H   H16       1.0  0.7765881444941037  0.8609832592507503  0.6925258625705171  1.0000
  C   C24       1.0  0.8411664102924986  0.5587926917568315  0.9814959289070502  1.0000
  C   C25       1.0  0.7794078234934175  0.5935369601991463  0.05203430513666185  1.0000
  C   C26       1.0  0.7208035579092186  0.6401629861175657  0.9732173339967606  1.0000
  C   C27       1.0  0.7228574452271119  0.6529890969591826  0.8226755546933355  1.0000
  C   C28       1.0  0.7832422809578871  0.6166868833358359  0.750416563683848  1.0000
  C   C29       1.0  0.8425369939366498  0.5670835657670255  0.8277197255390685  1.0000
  Br  Br1       1.0  0.6426524733070037  0.7179642543765345  0.7152625749518222  1.0000
  H   H17       1.0  0.9363996090629061  0.4277410515262461  0.27270974719110863  1.0000
  H   H18       1.0  0.6739548595672105  0.6676793879792795  0.029475742241004573  1.0000
  H   H19       1.0  0.7831683213513806  0.6240556590180206  0.6333406779472175  1.0000
  H   H20       1.0  0.9571278101562586  0.5521570739535768  0.54828814264607  1.0000
  Zn  Zn1       1.0  0.7654927212385492  0.5629602012494821  0.40466878137193385  1.0000
  Zn  Zn2       1.0  0.9182039827169929  0.5629153102025104  0.40454619964161087  1.0000
  C   C30       1.0  0.8422484933555882  0.5597695503675955  0.6677851867993754  1.0000
  C   C31       1.0  0.841449887253922  0.5661077821274065  0.1414299279934561  1.0000
  C   C32       1.0  0.8431159001457392  0.8263503842398814  0.39795419297677115  1.0000
  C   C33       1.0  0.8405824200774845  0.2995252158684192  0.41126100467444404  1.0000
  O   O2        1.0  0.89949812207578  0.568539463963031  0.19505874175895133  1.0000
  O   O3        1.0  0.900104566550998  0.5573027049451378  0.6140629253383609  1.0000
  O   O4        1.0  0.9008042296945099  0.7725701145798478  0.396172484162548  1.0000
  O   O5        1.0  0.8987984066973073  0.35327206360459673  0.41294907490799915  1.0000
  O   O6        1.0  0.7848982451453713  0.7726034478642119  0.39626590613979285  1.0000
  O   O7        1.0  0.784198590275282  0.5573377706330181  0.6141562644914687  1.0000
  O   O8        1.0  0.7835921427970702  0.5685744624092746  0.19515034878125226  1.0000
  O   O9        1.0  0.7828924275406943  0.35330705279137953  0.4130407899913122  1.0000
