data_image0
_chemical_formula_structural       NC9NC3OH6C9H9C9H10Zn2C4O8
_chemical_formula_sum              "N2 C34 O9 H25 Zn2"
_cell_length_a       15.78231758774541
_cell_length_b       9.272676604525723
_cell_length_c       9.272679976505534
_cell_angle_alpha    86.26619108519446
_cell_angle_beta     90.48255963298988
_cell_angle_gamma    90.18380166211226

_space_group_name_H-M_alt    "P 1"
_space_group_IT_number       1

loop_
  _space_group_symop_operation_xyz
  'x, y, z'

loop_
  _atom_site_type_symbol
  _atom_site_label
  _atom_site_symmetry_multiplicity
  _atom_site_fract_x
  _atom_site_fract_y
  _atom_site_fract_z
  _atom_site_occupancy
  N   N1        1.0  0.8002686779517606  0.5566162857909072  0.41924807633050665  1.0000
  C   C1        1.0  0.7513290747869378  0.46570575689868243  0.4455810862843239  1.0000
  C   C2        1.0  0.6905688608479826  0.3528636958528908  0.4782671414158722  1.0000
  C   C3        1.0  0.7095956126613944  0.21111517790352388  0.5192379360333805  1.0000
  C   C4        1.0  0.6325572216727486  0.14241895916112468  0.5391767510354224  1.0000
  C   C5        1.0  0.5712473481142973  0.24732945194050648  0.5088995018617575  1.0000
  C   C6        1.0  0.47806974509575795  0.22793392002053015  0.5145991781816455  1.0000
  C   C7        1.0  0.424857578461591  0.3468616479281539  0.4800929085988616  1.0000
  C   C8        1.0  0.33658009771415426  0.3309578403296194  0.48477445609485414  1.0000
  C   C9        1.0  0.2826869021335449  0.45334575895493573  0.449255053797823  1.0000
  N   N2        1.0  0.2393695910305324  0.5517298439088931  0.42070060759324424  1.0000
  C   C10       1.0  0.3008327124376562  0.1959493156254899  0.5240158866502587  1.0000
  C   C11       1.0  0.3531150682817319  0.07726750613867339  0.5584556525877094  1.0000
  C   C12       1.0  0.4412049306370583  0.0927343993388674  0.5539013026971686  1.0000
  O   O1        1.0  0.6082632610599684  0.3716611575438409  0.4729088302760264  1.0000
  H   H1        1.0  0.7718413610800396  0.16331204100379915  0.5329983062239636  1.0000
  H   H2        1.0  0.6233184646162214  0.02946340241272716  0.5718422041681435  1.0000
  H   H3        1.0  0.4519335988819224  0.45192217720225125  0.44955087579929315  1.0000
  H   H4        1.0  0.23265628284241252  0.18247959820786488  0.527978557680417  1.0000
  H   H5        1.0  0.3253119510286279  0.972925228927692  0.5887893544615213  1.0000
  H   H6        1.0  0.47987016766338875  0.9987301215045997  0.5811891814377979  1.0000
  C   C13       1.0  0.01741492176819204  0.13069638263872863  0.41812464761272666  1.0000
  C   C14       1.0  0.9839846070765726  0.19614239916950235  0.5374151585873657  1.0000
  C   C15       1.0  0.958320746945281  0.1132947459725755  0.6602548981838212  1.0000
  C   C16       1.0  0.9652597200151305  0.9625307906390173  0.6679377276864142  1.0000
  C   C17       1.0  0.9972973112922283  0.8956415366064779  0.5475318360170007  1.0000
  C   C18       1.0  0.022231448266974534  0.9776386651578037  0.42183648035643806  1.0000
  C   C19       1.0  0.9366297706553158  0.8803643714769278  0.8063357322961655  1.0000
  C   C20       1.0  0.8937490555385051  0.7346298860117778  0.7918393243948487  1.0000
  C   C21       1.0  0.9834644712031837  0.7415731736084283  0.8531384583115262  1.0000
  H   H7        1.0  0.03526906251859896  0.4273938258375736  0.18193441736942084  1.0000
  H   H8        1.0  0.979513325001072  0.3127135515846695  0.537261773794758  1.0000
  H   H9        1.0  0.9335889141400788  0.16775640217343438  0.7507589525209198  1.0000
  H   H10       1.0  0.04278082678661432  0.8977108473316558  0.06889320552124478  1.0000
  H   H11       1.0  0.9130141591559576  0.9414916020734287  0.8970312032645307  1.0000
  H   H12       1.0  0.889369837337372  0.6945305557761683  0.6819166892196047  1.0000
  H   H13       1.0  0.8449828259482772  0.7070697316675394  0.8748516493204355  1.0000
  H   H14       1.0  0.03355711107332679  0.7055640199691946  0.7805368155991581  1.0000
  H   H15       1.0  0.9871304834615324  0.718065160032467  0.9719962165128249  1.0000
  C   C22       1.0  0.01808599411506394  0.5507813906678842  0.9965972775611317  1.0000
  C   C23       1.0  0.07515717850475906  0.4609378975669578  0.07666301952713783  1.0000
  C   C24       1.0  0.13646716511368606  0.38273384739206895  0.00792654624198485  1.0000
  C   C25       1.0  0.142779598944783  0.3918007863442079  0.8571250469178362  1.0000
  C   C26       1.0  0.08468029846767106  0.47969842936619855  0.7756630866408205  1.0000
  C   C27       1.0  0.02156033502301267  0.557553693770217  0.8433638851315428  1.0000
  C   C28       1.0  0.21193732882386204  0.30415631876330423  0.7908264889960397  1.0000
  C   C29       1.0  0.19138767274731827  0.23838531075798342  0.648370650785377  1.0000
  C   C30       1.0  0.2517154346244792  0.36684577446391486  0.6513152122084485  1.0000
  H   H16       1.0  0.8910691552288277  0.6497026487141317  0.26955348781339583  1.0000
  H   H17       1.0  0.07377453283328145  0.453678624449001  0.19370130448991782  1.0000
  H   H18       1.0  0.17994932049448953  0.3156020664683279  0.07341196246894888  1.0000
  H   H19       1.0  0.08661097886724467  0.4859114500072961  0.6589177741378363  1.0000
  H   H20       1.0  0.8299789443836141  0.6953586875014668  0.7286194454361543  1.0000
  H   H21       1.0  0.25585035230176123  0.2387916538067323  0.8628749327489755  1.0000
  H   H22       1.0  0.1285943583040653  0.2636945396988801  0.5985887225418325  1.0000
  H   H23       1.0  0.2237063758874016  0.1342022441017907  0.6337305212289612  1.0000
  H   H24       1.0  0.22560828179995895  0.4701211893110944  0.6032050927147572  1.0000
  H   H25       1.0  0.31930291607992706  0.3377326639088716  0.6383922121438119  1.0000
  Zn  Zn1       1.0  0.9269837249469551  0.5552023787564191  0.41967554759584136  1.0000
  Zn  Zn2       1.0  0.11265449696731261  0.5531320754235853  0.4202848706353408  1.0000
  C   C31       1.0  0.02086905754995193  0.5505286711089385  0.6832816386147662  1.0000
  C   C32       1.0  0.01877120281160249  0.5578075811383383  0.1566789357536269  1.0000
  C   C33       1.0  0.021293064159385356  0.8175026561463352  0.4153895306211284  1.0000
  C   C34       1.0  0.018347123308054547  0.2908318648431536  0.4245711128125908  1.0000
  O   O2        1.0  0.08946221968178425  0.559373674211606  0.21063500995267614  1.0000
  O   O3        1.0  0.09109785262430799  0.5473901744944552  0.629787606704479  1.0000
  O   O4        1.0  0.09143929962564917  0.7629750663401216  0.4134628375728111  1.0000
  O   O5        1.0  0.08912070893869939  0.34378879252378836  0.42695967081946673  1.0000
  O   O6        1.0  0.9505174496152236  0.7645456623642182  0.4130007471962065  1.0000
  O   O7        1.0  0.9501760121476532  0.5489625024843419  0.6293254470470395  1.0000
  O   O8        1.0  0.9485403718633486  0.560945938084551  0.21017111665928345  1.0000
  O   O9        1.0  0.9481988615016631  0.34536104694688596  0.42649588557544216  1.0000
