data_image0
_chemical_formula_structural       NC5NC3F3CH3C9H8C7OH5Zn2C4O8
_chemical_formula_sum              "N2 C29 F3 H16 O9 Zn2"
_cell_length_a       13.85151926108384
_cell_length_b       9.275152443626249
_cell_length_c       9.274074313596557
_cell_angle_alpha    85.92156872667384
_cell_angle_beta     90.23361225849852
_cell_angle_gamma    90.57354708821606

_space_group_name_H-M_alt    "P 1"
_space_group_IT_number       1

loop_
  _space_group_symop_operation_xyz
  'x, y, z'

loop_
  _atom_site_type_symbol
  _atom_site_label
  _atom_site_symmetry_multiplicity
  _atom_site_fract_x
  _atom_site_fract_y
  _atom_site_fract_z
  _atom_site_occupancy
  N   N1        1.0  0.915204897342757  0.5631337634281344  0.40481967428317556  1.0000
  C   C1        1.0  0.8429891855070123  0.5546643180146122  0.467302836067438  1.0000
  C   C2        1.0  0.7531471676692711  0.5441271700907122  0.5450408278043333  1.0000
  C   C3        1.0  0.6654717556547041  0.5526099980330001  0.4695021807850439  1.0000
  C   C4        1.0  0.5780951780213177  0.544127156744447  0.5450408077959139  1.0000
  C   C5        1.0  0.4879699337587822  0.5546643350921456  0.46730293005696066  1.0000
  N   N2        1.0  0.41552671177055855  0.5631337265634577  0.40481977984178585  1.0000
  C   C6        1.0  0.5783785600107579  0.5261649578579126  0.6962975275518454  1.0000
  C   C7        1.0  0.6660452169278556  0.5145037981669476  0.7731089843700709  1.0000
  C   C8        1.0  0.6663966081337614  0.5005221539196294  0.9361452313100792  1.0000
  F   F1        1.0  0.7469743315097999  0.4261924558128003  0.9879928288917295  1.0000
  F   F2        1.0  0.5851055169217451  0.4261924261791025  0.9879929282705119  1.0000
  F   F3        1.0  0.6674504836470503  0.6368828441010463  0.9873841561272815  1.0000
  C   C9        1.0  0.7534488862687506  0.5261648627697488  0.6962975474925617  1.0000
  H   H1        1.0  0.6652463395375853  0.5666772156359219  0.35239331124148676  1.0000
  H   H2        1.0  0.5103817845764397  0.5215512857004224  0.7539538420325893  1.0000
  H   H3        1.0  0.8216985374392948  0.521551204375442  0.75395380128029  1.0000
  C   C10       1.0  0.1625266142735338  0.1395159110250359  0.40629111073858204  1.0000
  C   C11       1.0  0.12735764382168438  0.2210533151724281  0.28384953337259966  1.0000
  C   C12       1.0  0.10115619680525416  0.1543874690187588  0.15911554529321315  1.0000
  C   C13       1.0  0.10971087865685107  0.004998780605466996  0.15435343844092905  1.0000
  C   C14       1.0  0.14298910631987782  0.9217630712301716  0.27576022567255976  1.0000
  C   C15       1.0  0.16821418900985016  0.9867406626433214  0.4033607591882653  1.0000
  C   C16       1.0  0.08319375815356915  0.93658122455343  0.025183549136330148  1.0000
  C   C17       1.0  0.0609918383840331  0.8792640796396144  0.9170240192464924  1.0000
  C   C18       1.0  0.03405419053957015  0.8097078611230208  0.7857913987681746  1.0000
  H   H4        1.0  0.30205312760803893  0.22399300496551594  0.694126293455517  1.0000
  H   H5        1.0  0.1222708841986731  0.3375663507317481  0.28339618283215606  1.0000
  H   H6        1.0  0.07508341930544418  0.2197108963317798  0.06577264815602589  1.0000
  H   H7        1.0  0.14704256806695054  0.8054135717741222  0.27173966165855523  1.0000
  H   H8        1.0  0.259067016240506  0.6933739102339107  0.6002303598351738  1.0000
  H   H9        1.0  0.05174061035756017  0.6931182104843514  0.7992558115891808  1.0000
  H   H10       1.0  0.9554230004193115  0.8220967336665606  0.7660607357801967  1.0000
  H   H11       1.0  0.07456330160002622  0.8611405730961322  0.692501136316551  1.0000
  C   C19       1.0  0.1641865756985708  0.5589735059121057  0.9815991459278455  1.0000
  C   C20       1.0  0.08029714595048089  0.6015619973395994  0.05134068697501415  1.0000
  C   C21       1.0  0.0012395409241221535  0.6557437500013386  0.971971046041164  1.0000
  C   C22       1.0  0.004223228391319944  0.6687781722217951  0.820645962238634  1.0000
  C   C23       1.0  0.08679746765566093  0.6244480819317713  0.749770558813363  1.0000
  C   C24       1.0  0.1665541868332448  0.5672829893458817  0.8280528119497697  1.0000
  C   C25       1.0  0.9215699857976545  0.7269269393104834  0.7350541245731921  1.0000
  O   O1        1.0  0.846187400357583  0.7671201374266098  0.7956213756079927  1.0000
  H   H12       1.0  0.39982584362565715  0.5222206395567628  0.08851486182844925  1.0000
  H   H13       1.0  0.9381175876469884  0.6887671136425502  0.029258472718775685  1.0000
  H   H14       1.0  0.08796307538603743  0.6314389130880731  0.632589716606804  1.0000
  H   H15       1.0  0.32491247472792484  0.5373004961577781  0.5506907070451228  1.0000
  H   H16       1.0  0.9250569105417478  0.7356830942542084  0.6181543224947793  1.0000
  Zn  Zn1       1.0  0.05958696300154687  0.5631299832528103  0.4048280251880504  1.0000
  Zn  Zn2       1.0  0.27114458253629925  0.5631258558094236  0.4048232207139797  1.0000
  C   C26       1.0  0.16606594985454848  0.5599655232910303  0.6680747787248276  1.0000
  C   C27       1.0  0.1646679185005813  0.5662921372646936  0.14157660228612534  1.0000
  C   C28       1.0  0.16711807648183033  0.8265407422591458  0.3981715045451404  1.0000
  C   C29       1.0  0.16361570826341398  0.299715185895552  0.411479959300012  1.0000
  O   O2        1.0  0.2451144333649625  0.5687404770536768  0.19526469654635065  1.0000
  O   O3        1.0  0.2461867646408037  0.557512958536637  0.6143826268656958  1.0000
  O   O4        1.0  0.247035292109669  0.7727758338897912  0.39643381819181767  1.0000
  O   O5        1.0  0.24426583347282405  0.353477610960514  0.41321339712396155  1.0000
  O   O6        1.0  0.0864656398707786  0.7727782281046247  0.39643784877212185  1.0000
  O   O7        1.0  0.08561712381755537  0.5575170851554011  0.6143865746058542  1.0000
  O   O8        1.0  0.08454478742164963  0.5687445363924721  0.1952669116850989  1.0000
  O   O9        1.0  0.08369618775854097  0.35348166104222223  0.4132157203530309  1.0000
