data_image0
_chemical_formula_structural       NC5OC5NC4H8C6BrH5C6H6Zn2C4O8
_chemical_formula_sum              "N2 C30 O9 H19 Br1 Zn2"
_cell_length_a       19.189071930511275
_cell_length_b       9.276564384272257
_cell_length_c       10.68112160042829
_cell_angle_alpha    85.5120417802204
_cell_angle_beta     89.97791331363976
_cell_angle_gamma    90.57707898574843

_space_group_name_H-M_alt    "P 1"
_space_group_IT_number       1

loop_
  _space_group_symop_operation_xyz
  'x, y, z'

loop_
  _atom_site_type_symbol
  _atom_site_label
  _atom_site_symmetry_multiplicity
  _atom_site_fract_x
  _atom_site_fract_y
  _atom_site_fract_z
  _atom_site_occupancy
  N   N1        1.0  0.6640187582432449  0.5780572320216137  0.6170606279245958  1.0000
  C   C1        1.0  0.6098150138070321  0.6292678097771607  0.5993846878459226  1.0000
  C   C2        1.0  0.5423925359023815  0.6929652348243016  0.5773984752413812  1.0000
  C   C3        1.0  0.5332289249550948  0.8005917427370071  0.4795241258511203  1.0000
  C   C4        1.0  0.4677356644451247  0.8625467529718134  0.4582883962014903  1.0000
  C   C5        1.0  0.41074667285432287  0.8167602864941569  0.5336202240158263  1.0000
  O   O1        1.0  0.3461023699928016  0.8827478936487179  0.5101975118487876  1.0000
  C   C6        1.0  0.2808045961318169  0.8165498028961174  0.5330763215499661  1.0000
  C   C7        1.0  0.22446797525143425  0.9027064665091793  0.5621917743294971  1.0000
  C   C8        1.0  0.15836370358821567  0.8410684504678652  0.5842475538918437  1.0000
  C   C9        1.0  0.1479332468701207  0.6924717259273079  0.5761219964401572  1.0000
  C   C10       1.0  0.0798819275186078  0.6289958996867522  0.5986812934603538  1.0000
  N   N2        1.0  0.025172668113862106  0.577963543218214  0.6168183881540721  1.0000
  C   C11       1.0  0.2037949381586472  0.6059727457459361  0.5451578832147801  1.0000
  C   C12       1.0  0.26989056632486574  0.6676545577309945  0.5231441484137698  1.0000
  C   C13       1.0  0.42039740377006257  0.7101360844790139  0.6330544186344385  1.0000
  C   C14       1.0  0.4858817285556422  0.6481765164984674  0.6543493377136884  1.0000
  H   H1        1.0  0.5766559794424118  0.8366941681533108  0.41981660179059865  1.0000
  H   H2        1.0  0.4611126286147777  0.9458708802524992  0.38255984449189206  1.0000
  H   H3        1.0  0.2320716080993044  0.01771854250978544  0.5684481694813288  1.0000
  H   H4        1.0  0.11545195699990762  0.9092125740274902  0.6074402762194413  1.0000
  H   H5        1.0  0.1961856284065293  0.4911307379882488  0.5373827521004164  1.0000
  H   H6        1.0  0.3120943565683311  0.5997421844719786  0.49665944137693124  1.0000
  H   H7        1.0  0.3776912538224132  0.6764514341728185  0.6951257777561508  1.0000
  H   H8        1.0  0.4925170635535928  0.5660159329466696  0.7311295324879019  1.0000
  C   C15       1.0  0.8424994681379177  0.15452998626239545  0.6172611418657132  1.0000
  C   C16       1.0  0.8335689575584156  0.23803158756516063  0.5028102909848224  1.0000
  C   C17       1.0  0.8311239602933046  0.17304334958885612  0.3894241737584772  1.0000
  C   C18       1.0  0.837593990368166  0.02363451133294059  0.38833591818785657  1.0000
  C   C19       1.0  0.845296825477255  0.9384398992613677  0.5010568118690046  1.0000
  C   C20       1.0  0.8466985963023181  0.0014796999409714157  0.6166286509266514  1.0000
  Br  Br1       1.0  0.8347615317292456  0.935277467513818  0.23275000397310497  1.0000
  H   H9        1.0  0.8220642897237017  0.4170876908643749  0.8208693645210098  1.0000
  H   H10       1.0  0.8301299179267826  0.35468887185566844  0.5006686927497346  1.0000
  H   H11       1.0  0.8248616869159019  0.23926520394966877  0.30219824077682  1.0000
  H   H12       1.0  0.8485211831778712  0.8221990807100786  0.49835470799445725  1.0000
  H   H13       1.0  0.8851415558864201  0.7035370750146678  0.8116452181792875  1.0000
  C   C21       1.0  0.8445990459445857  0.5780048377943277  0.2491996894781792  1.0000
  C   C22       1.0  0.7943220225041681  0.49781424309128375  0.18787054628515465  1.0000
  C   C23       1.0  0.794321979453301  0.497814335570387  0.05698840629239599  1.0000
  C   C24       1.0  0.844598991511575  0.5780049084994279  0.9846901251384823  1.0000
  C   C25       1.0  0.8948345164260859  0.6581290491715147  0.04601876522836413  1.0000
  C   C26       1.0  0.8948345073992693  0.6581290268122699  0.17691106391408784  1.0000
  H   H14       1.0  0.8954424480658054  0.6590995630627596  0.5423630353302962  1.0000
  H   H15       1.0  0.754912518002023  0.43495706498518505  0.24098054915703826  1.0000
  H   H16       1.0  0.7549125037844108  0.43495713287039806  0.012476519890578517  1.0000
  H   H17       1.0  0.934249167681413  0.7209945102474264  0.9929530881136448  1.0000
  H   H18       1.0  0.9342491323195274  0.7209944597033369  0.22137745565935107  1.0000
  H   H19       1.0  0.8954426630716745  0.6590990605776195  0.6804340098461568  1.0000
  Zn  Zn1       1.0  0.7682399649837917  0.5780263483556642  0.6169979519646644  1.0000
  Zn  Zn2       1.0  0.9209514204812023  0.5779826738982321  0.6168913119427406  1.0000
  C   C27       1.0  0.8445689822905762  0.5722599030966204  0.8456709910648058  1.0000
  C   C28       1.0  0.8446240798000206  0.583750938239509  0.38821839323231216  1.0000
  C   C29       1.0  0.8459012824061445  0.8413881987865787  0.6117579431094196  1.0000
  C   C30       1.0  0.8432917189846074  0.3146209099702273  0.6221315092830906  1.0000
  O   O2        1.0  0.9025856516972237  0.5856565164475813  0.43483387552917696  1.0000
  O   O3        1.0  0.9025118662196036  0.5703200890805264  0.7989742117800737  1.0000
  O   O4        1.0  0.9035869341752291  0.7876445916655017  0.6100877700083247  1.0000
  O   O5        1.0  0.9015105316826736  0.3683320241935711  0.6237202234334707  1.0000
  O   O6        1.0  0.7876808016694031  0.7876769980767995  0.6101690405037372  1.0000
  O   O7        1.0  0.7866057423007055  0.570354228087622  0.7990554142098973  1.0000
  O   O8        1.0  0.7866795275755839  0.5856906052013668  0.4349135723739092  1.0000
  O   O9        1.0  0.7856044075070414  0.36836610263286573  0.6238000141754616  1.0000
