data_image0
_chemical_formula_structural       NC9NC3SH6C12H9C8NH7Zn2C4O8
_chemical_formula_sum              "N3 C36 S1 H22 Zn2 O8"
_cell_length_a       16.77567553997237
_cell_length_b       10.299137764757564
_cell_length_c       9.274266800404105
_cell_angle_alpha    85.96615715637442
_cell_angle_beta     89.94189520236782
_cell_angle_gamma    90.9119803869589

_space_group_name_H-M_alt    "P 1"
_space_group_IT_number       1

loop_
  _space_group_symop_operation_xyz
  'x, y, z'

loop_
  _atom_site_type_symbol
  _atom_site_label
  _atom_site_symmetry_multiplicity
  _atom_site_fract_x
  _atom_site_fract_y
  _atom_site_fract_z
  _atom_site_occupancy
  N   N1        1.0  0.7578436194082185  0.42951125912251387  0.4172901823973505  1.0000
  C   C1        1.0  0.7029064157088343  0.479151553613646  0.4634516926611905  1.0000
  C   C2        1.0  0.6347285610747045  0.5407518738660513  0.5207345949407622  1.0000
  C   C3        1.0  0.6364278064655154  0.6295532024302974  0.626218377467763  1.0000
  C   C4        1.0  0.5606493634215608  0.673263746452968  0.6611843359565528  1.0000
  C   C5        1.0  0.4989718405293577  0.6186902513732264  0.5828192253980213  1.0000
  C   C6        1.0  0.4124349907873772  0.6448378203795426  0.5948571146354003  1.0000
  C   C7        1.0  0.3558796494369923  0.5648106642113594  0.5301810521846123  1.0000
  C   C8        1.0  0.2741971115846398  0.588939760311809  0.5410466390840694  1.0000
  C   C9        1.0  0.2169803879829307  0.506233428806922  0.47482247239872377  1.0000
  N   N2        1.0  0.17099512600905467  0.43974939232526955  0.42158802710150756  1.0000
  C   C10       1.0  0.24824092907705209  0.6934083908635857  0.6164093789689524  1.0000
  C   C11       1.0  0.3037068642387226  0.7735909511928301  0.6805730513668213  1.0000
  C   C12       1.0  0.3852304172916405  0.749827320458137  0.6700343627690206  1.0000
  S   S1        1.0  0.54001801674268  0.5158443954093755  0.47061680436801295  1.0000
  H   H1        1.0  0.6906187115231325  0.66175615851356  0.677011410905823  1.0000
  H   H2        1.0  0.5520475700804943  0.7417148986368058  0.7427311101038876  1.0000
  H   H3        1.0  0.3749099265856154  0.4831162536166964  0.4719852508313218  1.0000
  H   H4        1.0  0.1852223534588423  0.7129290786624889  0.6253820099253664  1.0000
  H   H5        1.0  0.2834973202555929  0.8546714213118216  0.7384166154072902  1.0000
  H   H6        1.0  0.4264708442562246  0.8148057176809341  0.7196990650048789  1.0000
  C   C13       1.0  0.9643457769465372  0.05322966853356824  0.4195955013720105  1.0000
  C   C14       1.0  0.9649676794879284  0.06207953922950793  0.2678173591593276  1.0000
  C   C15       1.0  0.9653624831230536  0.9494359703055862  0.19070517278694155  1.0000
  C   C16       1.0  0.9651269304680282  0.8268256354436889  0.2674226195338798  1.0000
  C   C17       1.0  0.9645005334657352  0.8160212820510555  0.4192953088496951  1.0000
  C   C18       1.0  0.964115149576574  0.9297346657300006  0.4944467717216367  1.0000
  C   C19       1.0  0.9660194504480917  0.9598431493038289  0.030138883983243936  1.0000
  C   C20       1.0  0.014435514392640455  0.8782078658361934  0.9530955458742384  1.0000
  C   C21       1.0  0.014954833155649048  0.8882520012453988  0.8019546769041095  1.0000
  C   C22       1.0  0.9672654767693768  0.9795522166490975  0.7261506186467015  1.0000
  C   C23       1.0  0.918957304797781  0.061063346887591845  0.8013335295430046  1.0000
  C   C24       1.0  0.9182375313758508  0.05150914745406122  0.9524732873073524  1.0000
  H   H7        1.0  0.9662496989139543  0.15684466061227423  0.20922391497157067  1.0000
  H   H8        1.0  0.9643307927078989  0.7396418630630958  0.20853397716650535  1.0000
  H   H9        1.0  0.963633279425687  0.9221929737998869  0.6115167129230314  1.0000
  H   H10       1.0  0.9628113272175944  0.5883245039824416  0.7059417702641302  1.0000
  H   H11       1.0  0.052616610420842314  0.8078668164359363  0.009680384213056833  1.0000
  H   H12       1.0  0.05253382438271649  0.8253799973043567  0.7435696458974737  1.0000
  H   H13       1.0  0.9677451102491474  0.9871375381642041  0.6091580473143909  1.0000
  H   H14       1.0  0.8818590343231969  0.1315375898957134  0.7424638313552285  1.0000
  H   H15       1.0  0.8795949042096616  0.11454687238472117  0.008552496734745006  1.0000
  C   C25       1.0  0.9662561242799859  0.43183117608779137  0.9961548619676567  1.0000
  C   C26       1.0  0.9199103900429987  0.337707028304983  0.07685901269400253  1.0000
  C   C27       1.0  0.8687426765737225  0.253564363747258  0.00846250174482099  1.0000
  C   C28       1.0  0.8622154767188995  0.2622302500522091  0.8576932458376881  1.0000
  C   C29       1.0  0.9096549971618448  0.35327643605325526  0.7756954508836524  1.0000
  C   C30       1.0  0.962590169961762  0.4374197730796314  0.8427358938818528  1.0000
  C   C31       1.0  0.8078978457080904  0.17017069893561443  0.78408229245687  1.0000
  C   C32       1.0  0.8510433685709408  0.0525013718292957  0.7533630158673872  1.0000
  N   N3        1.0  0.8851009991535237  0.9596332532308572  0.7291156630917897  1.0000
  H   H16       1.0  0.054133346084465524  0.7198547789691871  0.07639119949662598  1.0000
  H   H17       1.0  0.9219443681545679  0.33103094274435324  0.1938968560991452  1.0000
  H   H18       1.0  0.8335470990449034  0.18228176524476614  0.0733682083253997  1.0000
  H   H19       1.0  0.9065509981282011  0.3561629455259684  0.658770992549301  1.0000
  H   H20       1.0  0.024651176300976237  0.6288861083482724  0.5469663571995467  1.0000
  H   H21       1.0  0.785168431843329  0.21716373816202506  0.6810579917563837  1.0000
  H   H22       1.0  0.7556070471036411  0.14218921893318034  0.8537104541672962  1.0000
  Zn  Zn1       1.0  0.8770701857363201  0.43246235058003224  0.41853878174269976  1.0000
  Zn  Zn2       1.0  0.05176850130667976  0.43678778377386435  0.42035126939364953  1.0000
  C   C33       1.0  0.9632803031649073  0.4311892560064637  0.6827159990385443  1.0000
  C   C34       1.0  0.9655602912981159  0.4380625652715604  0.15617421272323373  1.0000
  C   C35       1.0  0.9644920567629037  0.6717994112426582  0.4136079473884544  1.0000
  C   C36       1.0  0.9643484774384173  0.19745084863368145  0.4252823412186046  1.0000
  O   O1        1.0  0.031623862554291275  0.4417896895458441  0.21056600047933927  1.0000
  O   O2        1.0  0.02980871278078667  0.43074405289899476  0.6296994329163101  1.0000
  O   O3        1.0  0.030786318928953893  0.625039783949297  0.4123927674208432  1.0000
  O   O4        1.0  0.030646197263318298  0.24749396559709697  0.4278725572741835  1.0000
  O   O5        1.0  0.8981924301637536  0.6217561672821055  0.41101749323606995  1.0000
  O   O6        1.0  0.8972148246613607  0.4274619961587942  0.62832408126016  1.0000
  O   O7        1.0  0.8990299819832321  0.4385075761067829  0.20918891580536259  1.0000
  O   O8        1.0  0.8980523162191368  0.24421184358178705  0.42649558067473414  1.0000
