data_image0
_chemical_formula_structural       NC5NC3F3CH3C9H8C6NCH7Zn2C4O8
_chemical_formula_sum              "N3 C29 F3 H18 Zn2 O8"
_cell_length_a       13.85151926108384
_cell_length_b       9.275152443626249
_cell_length_c       9.273390368590327
_cell_angle_alpha    85.97038560770253
_cell_angle_beta     89.99084653650657
_cell_angle_gamma    90.57354708821606

_space_group_name_H-M_alt    "P 1"
_space_group_IT_number       1

loop_
  _space_group_symop_operation_xyz
  'x, y, z'

loop_
  _atom_site_type_symbol
  _atom_site_label
  _atom_site_symmetry_multiplicity
  _atom_site_fract_x
  _atom_site_fract_y
  _atom_site_fract_z
  _atom_site_occupancy
  N   N1        1.0  0.9197214942555905  0.5618383588023075  0.4048068378471934  1.0000
  C   C1        1.0  0.8473288674647972  0.5534196543460965  0.4672905024342385  1.0000
  C   C2        1.0  0.7572667421145519  0.5429456354317983  0.5450291197297232  1.0000
  C   C3        1.0  0.6698052103832525  0.551367120395365  0.4694898648499987  1.0000
  C   C4        1.0  0.5822147525232501  0.542945622069285  0.5450290997211424  1.0000
  C   C5        1.0  0.4923096154504448  0.5534196714999566  0.46729059642451726  1.0000
  N   N2        1.0  0.42004330838451304  0.561838322023352  0.40480694340665346  1.0000
  C   C6        1.0  0.5820698659198039  0.5251062548471714  0.6962870366417855  1.0000
  C   C7        1.0  0.6695190387173058  0.5135074717507987  0.7730991115627621  1.0000
  C   C8        1.0  0.6694088087524024  0.49965822501682694  0.9361366704574835  1.0000
  F   F1        1.0  0.7498397307321347  0.42537063100109124  0.9879846852573981  1.0000
  F   F2        1.0  0.5879709158626986  0.42537060144809674  0.9879847846369803  1.0000
  F   F3        1.0  0.6703176062667247  0.6360605250019506  0.9873760075949528  1.0000
  C   C9        1.0  0.7571401921213372  0.5251061597752007  0.6962870565826618  1.0000
  H   H1        1.0  0.6699113765644599  0.5653392369185612  0.3523800529299077  1.0000
  H   H2        1.0  0.5139098422759945  0.5205394038893174  0.7539438150836109  1.0000
  H   H3        1.0  0.8252265952542355  0.5205393225312436  0.7539437743309836  1.0000
  C   C10       1.0  0.16703904495810806  0.13822170131464295  0.40627828614326744  1.0000
  C   C11       1.0  0.1322167558446743  0.21965967382840915  0.2838357234883848  1.0000
  C   C12       1.0  0.1063684809031511  0.15289253443374973  0.15910073167303973  1.0000
  C   C13       1.0  0.11493664619405619  0.0034999788368264033  0.1543385865000224  1.0000
  C   C14       1.0  0.14787112242561995  0.9203628607688903  0.27574635069358466  1.0000
  C   C15       1.0  0.1727349166979366  0.9854440732703329  0.40334791101237566  1.0000
  C   C16       1.0  0.08878525758569492  0.934977527263308  0.02516765776371277  1.0000
  C   C17       1.0  0.06688958093545928  0.8775725487967033  0.9170072575127892  1.0000
  C   C18       1.0  0.04032350540727925  0.807909759668069  0.7857735810039372  1.0000
  H   H4        1.0  0.3057505811538497  0.2229325387518022  0.6941157850735091  1.0000
  H   H5        1.0  0.1271312798393316  0.3361723412334976  0.28338236929982363  1.0000
  H   H6        1.0  0.08055999467765543  0.2181401603976756  0.06575708340439501  1.0000
  H   H7        1.0  0.15193596800605638  0.8040100963169415  0.27172575432605206  1.0000
  H   H8        1.0  0.2630303269292871  0.6922371935644978  0.6002190958714164  1.0000
  H   H9        1.0  0.05797180205862753  0.6913310431303105  0.7992381021732413  1.0000
  H   H10       1.0  0.9617481807274993  0.8202826094512392  0.7660427592430681  1.0000
  H   H11       1.0  0.08109675871209059  0.8592667130353502  0.6924825678444075  1.0000
  C   C19       1.0  0.16990148010116024  0.557334414857015  0.9815829038309917  1.0000
  C   C20       1.0  0.25855051831032855  0.5544681519428833  0.055195315786354504  1.0000
  C   C21       1.0  0.3457431366563415  0.5650118784606811  0.9797440713737644  1.0000
  C   C22       1.0  0.34650290166595954  0.5788126703880005  0.8280683490903216  1.0000
  C   C23       1.0  0.2584259444292747  0.5792461499916082  0.7536547496644386  1.0000
  C   C24       1.0  0.16987249701654114  0.5663313525069456  0.8280433200025157  1.0000
  N   N3        1.0  0.43533838622184856  0.5910173566148358  0.7472378769311523  1.0000
  C   C25       1.0  0.5306585799622006  0.5911873747442067  0.8142254999792513  1.0000
  H   H12       1.0  0.017056983016775284  0.4880408274382048  0.26766254846109505  1.0000
  H   H13       1.0  0.41225062317703187  0.5636844799018785  0.04086967624714034  1.0000
  H   H14       1.0  0.9441324687633854  0.45426026781455886  0.7329398323002154  1.0000
  H   H15       1.0  0.4322702546482832  0.6005777693710934  0.6343289758253317  1.0000
  H   H16       1.0  0.537546191500097  0.6837253322169974  0.8833739679791918  1.0000
  H   H17       1.0  0.5417413318187032  0.4880714249858973  0.8801360948105232  1.0000
  H   H18       1.0  0.587308150452833  0.6020928568831042  0.7292972215500115  1.0000
  Zn  Zn1       1.0  0.06410353626961052  0.5618345854085365  0.4048151888192686  1.0000
  Zn  Zn2       1.0  0.2756611694077611  0.561830454063561  0.40481038430653604  1.0000
  C   C26       1.0  0.16983716571369167  0.5588839013169626  0.6680640607059551  1.0000
  C   C27       1.0  0.16992986239841626  0.5647829597583438  0.1415616475298591  1.0000
  C   C28       1.0  0.17165349703637417  0.8252399388268681  0.39815861461125346  1.0000
  C   C29       1.0  0.16811344723131127  0.29842518991467926  0.41146717645942665  1.0000
  O   O1        1.0  0.2502243646803439  0.5672748982581028  0.1952501738188488  1.0000
  O   O2        1.0  0.2501100045710949  0.5563877345567223  0.6143714767854076  1.0000
  O   O3        1.0  0.2515756327529908  0.7714736193274343  0.396420914274747  1.0000
  O   O4        1.0  0.24875866438123878  0.3521890226596005  0.41320062823237214  1.0000
  O   O5        1.0  0.09100596910190654  0.7714760168153969  0.3964249448874857  1.0000
  O   O6        1.0  0.08954035257020654  0.5563918643813439  0.6143754245573336  1.0000
  O   O7        1.0  0.08965471246508241  0.5672789593957555  0.1952523889754223  1.0000
  O   O8        1.0  0.0881890120889599  0.35219307462794336  0.4132029514801365  1.0000
