data_image0
_chemical_formula_structural       NC9NC3OH6C6H4C6NH7Zn2C4O8
_chemical_formula_sum              "N3 C28 O9 H17 Zn2"
_cell_length_a       15.78231758774541
_cell_length_b       10.681118228259553
_cell_length_c       9.274774538082514
_cell_angle_alpha    85.06361991993052
_cell_angle_beta     90.43038941912484
_cell_angle_gamma    89.63144314392761

_space_group_name_H-M_alt    "P 1"
_space_group_IT_number       1

loop_
  _space_group_symop_operation_xyz
  'x, y, z'

loop_
  _atom_site_type_symbol
  _atom_site_label
  _atom_site_symmetry_multiplicity
  _atom_site_fract_x
  _atom_site_fract_y
  _atom_site_fract_z
  _atom_site_occupancy
  N   N1        1.0  0.7921559477717559  0.37486878726936723  0.4107275160240518  1.0000
  C   C1        1.0  0.7437208940211233  0.29553264017858827  0.4374875460239658  1.0000
  C   C2        1.0  0.6835869483480906  0.1970571942891901  0.4707036372318485  1.0000
  C   C3        1.0  0.703400439107392  0.07335683519655167  0.5123401513433632  1.0000
  C   C4        1.0  0.6267432902854568  0.013406169802407273  0.5326016857223277  1.0000
  C   C5        1.0  0.5648511164299952  0.10495824461553636  0.5018317753580253  1.0000
  C   C6        1.0  0.4717811197392958  0.08803089096632477  0.5076226426303319  1.0000
  C   C7        1.0  0.4179089364237463  0.19181803547585471  0.4725576902361035  1.0000
  C   C8        1.0  0.32971968622007447  0.177937950889798  0.47731402035357556  1.0000
  C   C9        1.0  0.27514727511200954  0.2847449057860849  0.44121967060477063  1.0000
  N   N2        1.0  0.2312839630866044  0.3706039284149757  0.41220303934805025  1.0000
  C   C10       1.0  0.29472152935741924  0.06011623204587791  0.5171897501972824  1.0000
  C   C11       1.0  0.34766253484333526  0.9565436277780289  0.5521870488909257  1.0000
  C   C12       1.0  0.43566659121153944  0.9700424149075011  0.547559969316225  1.0000
  O   O1        1.0  0.6011769831616505  0.21346017613418877  0.4652571242536348  1.0000
  H   H1        1.0  0.7659115329907891  0.03164106545754651  0.5263249676097568  1.0000
  H   H2        1.0  0.6181314563067359  0.9148324559238175  0.5657976508192373  1.0000
  H   H3        1.0  0.44440192696954117  0.283504264080098  0.44152205469521766  1.0000
  H   H4        1.0  0.22661982765274494  0.04836053960922815  0.5212157557830666  1.0000
  H   H5        1.0  0.3204384613294833  0.8654842102414932  0.5830109794682061  1.0000
  H   H6        1.0  0.4748535204548977  0.8880055487902415  0.5752894627411889  1.0000
  C   C13       1.0  0.011724032234384332  0.004986275604678793  0.41147149139733386  1.0000
  C   C14       1.0  0.04933253075109165  0.9292415387382076  0.5262146725229719  1.0000
  C   C15       1.0  0.04933251755970189  0.7983593011892011  0.5262146064945792  1.0000
  C   C16       1.0  0.011724018231913817  0.7404766792259896  0.4114715537394513  1.0000
  C   C17       1.0  0.974146651567232  0.8162089981383662  0.2968231935836336  1.0000
  C   C18       1.0  0.9741466646896132  0.9471012556670825  0.2968232522032612  1.0000
  H   H7        1.0  0.07881189627301866  0.9710518739414864  0.6161557486529172  1.0000
  H   H8        1.0  0.07881179200376204  0.74254784655108  0.6161557228088745  1.0000
  H   H9        1.0  0.944663442286523  0.7744443319722437  0.20687037394538188  1.0000
  H   H10       1.0  0.9446634200338174  0.002868771310946982  0.20687036213527676  1.0000
  C   C19       1.0  0.01020335430605356  0.3759492083506339  0.9876500983171023  1.0000
  C   C20       1.0  0.07024382360443182  0.44926748363805546  0.05458835213718083  1.0000
  C   C21       1.0  0.13408569067158038  0.5122330150163876  0.9740379517401522  1.0000
  C   C22       1.0  0.13840415064138178  0.5021636328591632  0.825075045978596  1.0000
  C   C23       1.0  0.07863553151070363  0.4316014383723504  0.7564351432495502  1.0000
  C   C24       1.0  0.013244678223290883  0.36951368197195533  0.835292943177572  1.0000
  N   N3        1.0  0.19509890561498378  0.5853676188368788  0.04398471916435676  1.0000
  H   H11       1.0  0.8835476233012051  0.1323740099340247  0.11314482380324399  1.0000
  H   H12       1.0  0.06871858050510249  0.4552216776022193  0.17060335707458418  1.0000
  H   H13       1.0  0.18769486808078142  0.5500692942590983  0.7617098981527701  1.0000
  H   H14       1.0  0.08241395999033391  0.4280812849454192  0.6402747891317766  1.0000
  H   H15       1.0  0.925335268225378  0.2092948992165431  0.5689157691214279  1.0000
  H   H16       1.0  0.19263833837663868  0.5932447293832077  0.1553463750545332  1.0000
  H   H17       1.0  0.24316661207868862  0.6323003617355865  0.9849041465296624  1.0000
  Zn  Zn1       1.0  0.918878833538765  0.3736346328074127  0.41116164779217934  1.0000
  Zn  Zn2       1.0  0.10456109115867934  0.3718277723463299  0.4117807056656744  1.0000
  C   C25       1.0  0.012667917628596426  0.3657412561865304  0.6750702904408676  1.0000
  C   C26       1.0  0.010774035221533522  0.3797227082643548  0.1478722114327331  1.0000
  C   C27       1.0  0.01169901564397713  0.6014970187863982  0.4057202748387667  1.0000
  C   C28       1.0  0.01174287412190833  0.14396544111362422  0.4172223037694729  1.0000
  O   O2        1.0  0.08143101002572314  0.3802979717639467  0.2018791454777049  1.0000
  O   O3        1.0  0.08293947847230276  0.3637936858231383  0.6215327915366495  1.0000
  O   O4        1.0  0.08215613334281735  0.5541694435109208  0.4040307450750096  1.0000
  O   O5        1.0  0.08221429140616099  0.18992222447277077  0.4193810835140648  1.0000
  O   O6        1.0  0.9412255699270149  0.5555401812989855  0.40356126972494377  1.0000
  O   O7        1.0  0.9420089147764767  0.36516592878007964  0.6210632392330993  1.0000
  O   O8        1.0  0.9405004401603431  0.38167018425459065  0.20140785796458194  1.0000
  O   O9        1.0  0.94128372192556  0.19129442718482137  0.4189099042073763  1.0000
