data_image0
_chemical_formula_structural       NC9NC3OCH8C13OH12C15H11Zn2C4O8
_chemical_formula_sum              "N2 C45 O10 H31 Zn2"
_cell_length_a       17.728193572023454
_cell_length_b       10.299150109392551
_cell_length_c       10.299157797200024
_cell_angle_alpha    85.5240492146119
_cell_angle_beta     90.72660703466438
_cell_angle_gamma    88.43520969070386

_space_group_name_H-M_alt    "P 1"
_space_group_IT_number       1

loop_
  _space_group_symop_operation_xyz
  'x, y, z'

loop_
  _atom_site_type_symbol
  _atom_site_label
  _atom_site_symmetry_multiplicity
  _atom_site_fract_x
  _atom_site_fract_y
  _atom_site_fract_z
  _atom_site_occupancy
  N   N1        1.0  0.710017393471692  0.38747252798090437  0.5846012405760681  1.0000
  C   C1        1.0  0.6494121583239115  0.3500373202574214  0.5976203995394367  1.0000
  C   C2        1.0  0.5739669674203933  0.3035003554971867  0.6138238916532421  1.0000
  C   C3        1.0  0.5620848603801046  0.17544838339596414  0.6232892994498377  1.0000
  C   C4        1.0  0.4853832573563497  0.12598805085018694  0.6382582058976612  1.0000
  C   C5        1.0  0.42723000441697145  0.20865965028880318  0.6557007268663437  1.0000
  C   C6        1.0  0.3491911964120514  0.16360115280087853  0.6774521671952659  1.0000
  C   C7        1.0  0.28783229904406143  0.24908808903677698  0.6419583138985112  1.0000
  C   C8        1.0  0.21356643391788901  0.20977578281510723  0.6621214468249728  1.0000
  C   C9        1.0  0.15122802594094356  0.2978003854053246  0.6245522135765311  1.0000
  N   N2        1.0  0.10112135714624564  0.36856363726829616  0.5943501014616516  1.0000
  C   C10       1.0  0.20002825931078952  0.08485635284028281  0.7188326378431329  1.0000
  C   C11       1.0  0.2604887790177069  0.9996865608225752  0.7557350464377052  1.0000
  C   C12       1.0  0.334651093975228  0.038509158235052084  0.7357016765273761  1.0000
  O   O1        1.0  0.4405714361297787  0.3424572748780131  0.6543589467747128  1.0000
  C   C13       1.0  0.5082783670698299  0.39985760994919706  0.6057260949233958  1.0000
  H   H1        1.0  0.6090190882019579  0.10598228342917859  0.6212119644108619  1.0000
  H   H2        1.0  0.4777417496123397  0.02233045362075825  0.6363112968433744  1.0000
  H   H3        1.0  0.2977024128727468  0.34593561320276245  0.5974950897874883  1.0000
  H   H4        1.0  0.1428208622050882  0.05356035736650622  0.7349847555476918  1.0000
  H   H5        1.0  0.24988200054110307  0.9034978173906905  0.8006592124875004  1.0000
  H   H6        1.0  0.3801970088193455  0.9712627578068087  0.7681474173248004  1.0000
  H   H7        1.0  0.49878099258189673  0.4358222866079943  0.5021800060762698  1.0000
  H   H8        1.0  0.5211642089107111  0.48423331745731923  0.6622833485221159  1.0000
  C   C14       1.0  0.905644161789225  0.9966147872064277  0.5896216715790603  1.0000
  C   C15       1.0  0.9042854660211408  0.9848365511915201  0.726406328445174  1.0000
  C   C16       1.0  0.903530854128781  0.8617333897553672  0.7954937051342327  1.0000
  C   C17       1.0  0.9041398825935605  0.7495883505957909  0.7260392838639074  1.0000
  C   C18       1.0  0.9055018453682604  0.7594109973724761  0.5893411123269907  1.0000
  C   C19       1.0  0.9062481013353408  0.8833846831001168  0.5219312114502134  1.0000
  C   C20       1.0  0.9020869075020423  0.8502554472187901  0.9401060708103235  1.0000
  C   C21       1.0  0.8556982290736767  0.759598219329627  0.006975048916411321  1.0000
  C   C22       1.0  0.8543144745569495  0.7488801049670899  0.1430545172733999  1.0000
  C   C23       1.0  0.8997893582270131  0.8276371442552384  0.21473735995711518  1.0000
  C   C24       1.0  0.9454561837412195  0.919282719802005  0.14849299678184014  1.0000
  C   C25       1.0  0.9468574559355123  0.9301757843450561  0.012413676349918076  1.0000
  C   C26       1.0  0.8967155955075156  0.8185508591067657  0.3607553366413423  1.0000
  O   O2        1.0  0.8403202544160681  0.9044411482879166  0.39959254639784303  1.0000
  H   H9        1.0  0.9077184764584548  0.22616329972450092  0.3314220006924531  1.0000
  H   H10       1.0  0.9027647296045173  0.0716667244885818  0.7793800196011789  1.0000
  H   H11       1.0  0.904582573703803  0.6544276735592043  0.7788868438111409  1.0000
  H   H12       1.0  0.9072964885547499  0.8916774962859418  0.41649176818178424  1.0000
  H   H13       1.0  0.9059749100741303  0.4357161195813019  0.5367609351682161  1.0000
  H   H14       1.0  0.8195958316159787  0.6983516550303622  0.9539634788390825  1.0000
  H   H15       1.0  0.8176155406698534  0.6793087197725486  0.1925181723899054  1.0000
  H   H16       1.0  0.98016867493205  0.9821492147592777  0.20221616959870525  1.0000
  H   H17       1.0  0.983581859970123  0.00019111392388282167  0.9637573453407251  1.0000
  H   H18       1.0  0.9522353735959519  0.8436829931146718  0.40231154648680134  1.0000
  H   H19       1.0  0.8844602594411339  0.7171100171151368  0.39826459023187166  1.0000
  H   H20       1.0  0.8406219352535322  0.8947185032165544  0.49623225274869753  1.0000
  C   C27       1.0  0.9054854860014099  0.37812340638637143  0.20808713343508822  1.0000
  C   C28       1.0  0.8268850307672232  0.36394272764341706  0.2063095881571759  1.0000
  C   C29       1.0  0.7871938863316845  0.35663589893867376  0.08827006619397393  1.0000
  C   C30       1.0  0.8271092945511246  0.3637231365317351  0.9710479594598738  1.0000
  C   C31       1.0  0.9056604935235758  0.3779024016663459  0.9708755951013042  1.0000
  C   C32       1.0  0.9443899017201635  0.3850139763406284  0.08991407626714441  1.0000
  C   C33       1.0  0.7040956020149546  0.34164910234660595  0.08743709923382048  1.0000
  C   C34       1.0  0.6701550749409358  0.2563040465633226  0.005515629269821077  1.0000
  C   C35       1.0  0.591956090513743  0.24229390022720196  0.004763997349440221  1.0000
  C   C36       1.0  0.5463049549830395  0.31268698224705527  0.0864313925107445  1.0000
  C   C37       1.0  0.5798414517802074  0.3988971867080017  0.1673657689733643  1.0000
  C   C38       1.0  0.6580396745264663  0.412911568562152  0.16826533111008213  1.0000
  C   C39       1.0  0.46206209815467586  0.2999434036079835  0.08327465983847859  1.0000
  C   C40       1.0  0.42810490909362514  0.3953600938971269  0.9849832621522254  1.0000
  C   C41       1.0  0.40019715369643666  0.4738204380051095  0.904160913262804  1.0000
  H   H21       1.0  0.796532260527123  0.3567846566946926  0.2970938652253512  1.0000
  H   H22       1.0  0.7966472926651256  0.3599574447745752  0.879658245425305  1.0000
  H   H23       1.0  0.004978819535427227  0.3959470910931513  0.0904968616226447  1.0000
  H   H24       1.0  0.935877024013061  0.3833146319412535  0.64333702610783  1.0000
  H   H25       1.0  0.7041766126737011  0.199289157654029  0.9430116843694103  1.0000
  H   H26       1.0  0.5669833341565371  0.17634019047531813  0.9406067733977381  1.0000
  H   H27       1.0  0.545379263446342  0.4556241766009388  0.2295138430072414  1.0000
  H   H28       1.0  0.6823965125887551  0.48100245295258026  0.23076519609487572  1.0000
  H   H29       1.0  0.44701933667765975  0.20042245709489337  0.059490850265782935  1.0000
  H   H30       1.0  0.43803681694855573  0.31655113645133937  0.17989150071193305  1.0000
  H   H31       1.0  0.3757176824475096  0.5427048588641271  0.8332067895732703  1.0000
  Zn  Zn1       1.0  0.8228815629091707  0.3820123577374199  0.5874220527305292  1.0000
  Zn  Zn2       1.0  0.9882572177241551  0.3740131997585503  0.5915399315826488  1.0000
  C   C42       1.0  0.9056267158281726  0.37277013497959205  0.8266941301104808  1.0000
  C   C43       1.0  0.9055138704256633  0.38325697389544827  0.3522680260419313  1.0000
  C   C44       1.0  0.905523673555838  0.6152280025461363  0.5842185133880715  1.0000
  C   C45       1.0  0.9056168565738711  0.14079754859587013  0.5947437111764081  1.0000
  O   O3        1.0  0.9682825966947245  0.38193854103259905  0.40221916635761557  1.0000
  O   O4        1.0  0.968374285128523  0.3680164123223296  0.7798679910518633  1.0000
  O   O5        1.0  0.96829023147633  0.563804247211183  0.5840671934301194  1.0000
  O   O6        1.0  0.9683665938913298  0.18615071819258344  0.5980198651896533  1.0000
  O   O7        1.0  0.8427721303073995  0.5698748420345225  0.5809421177114626  1.0000
  O   O8        1.0  0.8428561836491227  0.37408856760983955  0.776742845509077  1.0000
  O   O9        1.0  0.8427644949156474  0.38801065151002534  0.3990924593283255  1.0000
  O   O10       1.0  0.8428484921332443  0.19222281935230792  0.5948932555380078  1.0000
