data_image0
_chemical_formula_structural       NC5NC3BrH3C6ClH5C7ONH5Zn2C4O8
_chemical_formula_sum              "N3 C25 Br1 H13 Cl1 O9 Zn2"
_cell_length_a       13.839083392302014
_cell_length_b       10.30297070629231
_cell_length_c       9.273042158839658
_cell_angle_alpha    86.1623812568413
_cell_angle_beta     90.09396774382412
_cell_angle_gamma    90.02428142920579

_space_group_name_H-M_alt    "P 1"
_space_group_IT_number       1

loop_
  _space_group_symop_operation_xyz
  'x, y, z'

loop_
  _atom_site_type_symbol
  _atom_site_label
  _atom_site_symmetry_multiplicity
  _atom_site_fract_x
  _atom_site_fract_y
  _atom_site_fract_z
  _atom_site_occupancy
  N   N1        1.0  0.9081346126266063  0.4063164740594191  0.41011305807407217  1.0000
  C   C1        1.0  0.8361358787536036  0.34904034864632066  0.4125765812444304  1.0000
  C   C2        1.0  0.7464313229343542  0.27776904396270563  0.41564189813188346  1.0000
  C   C3        1.0  0.6588702106526555  0.3463475155319895  0.41269259192649255  1.0000
  C   C4        1.0  0.5708280640443427  0.27909446438640484  0.4155848366994477  1.0000
  C   C5        1.0  0.48106438764198495  0.34978914370448355  0.4125443593266429  1.0000
  N   N2        1.0  0.40890603947691573  0.4066221218013903  0.41009985684177086  1.0000
  C   C6        1.0  0.5702812157111665  0.14298259579107575  0.42143849232752895  1.0000
  C   C7        1.0  0.6573972893828023  0.07429498487160702  0.4243924008504611  1.0000
  C   C8        1.0  0.7456355071393328  0.14090533853333542  0.42152781624171465  1.0000
  Br  Br1       1.0  0.8630450652393388  0.04182620736272802  0.4257889229780225  1.0000
  H   H1        1.0  0.6592388811488193  0.4518226921615207  0.4081563048252436  1.0000
  H   H2        1.0  0.5025902828203215  0.09001642312510326  0.42371609890449236  1.0000
  H   H3        1.0  0.6562654063759898  0.9690440854731556  0.42891866514772015  1.0000
  C   C9        1.0  0.1585249394821564  0.025221898536602613  0.4101126878433692  1.0000
  C   C10       1.0  0.2583324530042084  0.022402965587559498  0.4378722784901168  1.0000
  C   C11       1.0  0.3078542771993025  0.904047441431477  0.45164574570139693  1.0000
  C   C12       1.0  0.25833245215878486  0.7872949962744337  0.4378722107029167  1.0000
  C   C13       1.0  0.15852494988441013  0.7877068411379283  0.41011277035292215  1.0000
  C   C14       1.0  0.10910770965071936  0.9072642358267795  0.39636825885538807  1.0000
  Cl  Cl1       1.0  0.43253764122005145  0.9020294385497332  0.4863239889204453  1.0000
  H   H4        1.0  0.12092919632347177  0.35358685187966155  0.3996553292778764  1.0000
  H   H5        1.0  0.2980283266045447  0.11180707078120843  0.448912818583731  1.0000
  H   H6        1.0  0.2980282882788088  0.696605876947875  0.448912715028547  1.0000
  H   H7        1.0  0.032133126347629215  0.9085099549136889  0.3749591836978463  1.0000
  H   H8        1.0  0.12092919190828222  0.4605588877809065  0.39965560140882084  1.0000
  C   C15       1.0  0.15806289582119337  0.4024516721154823  0.9868478099713305  1.0000
  C   C16       1.0  0.06931238543345275  0.41066474885848125  0.059530953790031475  1.0000
  C   C17       1.0  0.982306805201806  0.4314366500965181  0.9832770830857503  1.0000
  C   C18       1.0  0.9845874433792586  0.44242767448357667  0.8317783230771143  1.0000
  C   C19       1.0  0.07175608498009112  0.43230750633447207  0.7580857901743472  1.0000
  C   C20       1.0  0.15898704324269475  0.4104769972748138  0.833377624642075  1.0000
  C   C21       1.0  0.8899707065034864  0.44034281899488414  0.06313953426687036  1.0000
  O   O1        1.0  0.8835152478962316  0.3900984210073395  0.19051032415159797  1.0000
  N   N3        1.0  0.80777807483368  0.506157290447711  0.9996052379428044  1.0000
  H   H9        1.0  0.3925014797990123  0.4521848229453464  0.0868016969074561  1.0000
  H   H10       1.0  0.91887774775738  0.45522397263548464  0.7691569203172142  1.0000
  H   H11       1.0  0.317006230311458  0.43795112871655595  0.5504516826168442  1.0000
  H   H12       1.0  0.8124315510162903  0.5622228935773065  0.9019392892510694  1.0000
  H   H13       1.0  0.742467745000761  0.5059713029103613  0.055849418415921726  1.0000
  Zn  Zn1       1.0  0.0526464412026526  0.40640127553312566  0.4101175784618367  1.0000
  Zn  Zn2       1.0  0.26439421595436174  0.4065267912894639  0.41010716520137325  1.0000
  C   C22       1.0  0.15881017854995583  0.40378803428354426  0.6733653396933987  1.0000
  C   C23       1.0  0.1582327910406769  0.4091416733485047  0.1468595453256747  1.0000
  C   C24       1.0  0.158513720686424  0.6435264717183021  0.40436901299544553  1.0000
  C   C25       1.0  0.15852917673331857  0.16940167679383175  0.41585594887208455  1.0000
  O   O2        1.0  0.2386469864135894  0.41142886751483243  0.20055699365754354  1.0000
  O   O3        1.0  0.23910764425061348  0.4015951203280691  0.6196595730221721  1.0000
  O   O4        1.0  0.2388671691595021  0.5951869540292845  0.40244313607326165  1.0000
  O   O5        1.0  0.2388873891315515  0.2178370420334956  0.41777332253806776  1.0000
  O   O6        1.0  0.07815319576633128  0.5950910247476028  0.4024514211211139  1.0000
  O   O7        1.0  0.07839367076920123  0.4015007501248115  0.6196677812175388  1.0000
  O   O8        1.0  0.07793301110467876  0.4113344356413495  0.2005634689216973  1.0000
  O   O9        1.0  0.07817341393665789  0.21774260189864347  0.41777990586657965  1.0000
