data_image0
_chemical_formula_structural       NC5NC3BrH3C6NCOH7C9H8Zn2C4O8
_chemical_formula_sum              "N3 C28 Br1 H18 O9 Zn2"
_cell_length_a       13.839083392302014
_cell_length_b       9.273730183620392
_cell_length_c       9.275155815604963
_cell_angle_alpha    86.19487993173051
_cell_angle_beta     90.35828541235293
_cell_angle_gamma    90.62023199469779

_space_group_name_H-M_alt    "P 1"
_space_group_IT_number       1

loop_
  _space_group_symop_operation_xyz
  'x, y, z'

loop_
  _atom_site_type_symbol
  _atom_site_label
  _atom_site_symmetry_multiplicity
  _atom_site_fract_x
  _atom_site_fract_y
  _atom_site_fract_z
  _atom_site_occupancy
  N   N1        1.0  0.9141463465113652  0.5652644020617104  0.41422558549096444  1.0000
  C   C1        1.0  0.8417110540785631  0.5016340202433744  0.4165268786169479  1.0000
  C   C2        1.0  0.7514632679741922  0.42245582374895063  0.4193903252473885  1.0000
  C   C3        1.0  0.6644248617863994  0.49864244183848294  0.4166352620486684  1.0000
  C   C4        1.0  0.5758701112729718  0.4239282874128638  0.4193370179668032  1.0000
  C   C5        1.0  0.48664527023509535  0.5024658872173149  0.4164967776025629  1.0000
  N   N2        1.0  0.4149201028393916  0.565603958699121  0.41421324998608755  1.0000
  C   C6        1.0  0.5742858162882231  0.27271606714527774  0.4248051476721699  1.0000
  C   C7        1.0  0.6608783517230654  0.1964082018801079  0.4275645040677176  1.0000
  C   C8        1.0  0.74962427479721  0.27040835744758196  0.4248885879231438  1.0000
  Br  Br1       1.0  0.8662786505847924  0.16033731379605998  0.42886906098009736  1.0000
  H   H1        1.0  0.6655974650062639  0.6158191131889132  0.4123977249205696  1.0000
  H   H2        1.0  0.5061911736311027  0.21387378850548344  0.4269327318468238  1.0000
  H   H3        1.0  0.6589442442750398  0.0794806899663667  0.4317926536709506  1.0000
  C   C9        1.0  0.16158152015670613  0.14192231226316987  0.4131471806107423  1.0000
  C   C10       1.0  0.17519443443240237  0.22428720940826707  0.28176416059898335  1.0000
  C   C11       1.0  0.1962537830760218  0.15839559008136425  0.15422978060118903  1.0000
  C   C12       1.0  0.20676795293468553  0.007989048003038453  0.15907017533179268  1.0000
  C   C13       1.0  0.19206047610893529  0.9244312396500527  0.28786095032587383  1.0000
  C   C14       1.0  0.16749417420476842  0.988935079136208  0.4153041617111357  1.0000
  N   N3        1.0  0.21203102527371254  0.24705424015056798  0.023135887381102952  1.0000
  C   C15       1.0  0.1872935010105965  0.20486316258312984  0.8815473466982039  1.0000
  O   O1        1.0  0.13754674950103718  0.09277720969925028  0.8640461317050111  1.0000
  H   H4        1.0  0.17823113378127187  0.22161367802280488  0.767329659660646  1.0000
  H   H5        1.0  0.17088192617851108  0.3410835126784535  0.27858551921593544  1.0000
  H   H6        1.0  0.22733242406654552  0.9546886021545181  0.06382134933869656  1.0000
  H   H7        1.0  0.19827503666386637  0.8081371375973525  0.2870703756001153  1.0000
  H   H8        1.0  0.17456292458219358  0.6921746137394763  0.6536250467889877  1.0000
  H   H9        1.0  0.23715422719197377  0.3529128928234151  0.031051764843624374  1.0000
  H   H10       1.0  0.20933859103595645  0.2726851290065866  0.7878518688327697  1.0000
  C   C16       1.0  0.16274192836301382  0.5617820732366434  0.9909851745459314  1.0000
  C   C17       1.0  0.08764077835186646  0.6320037311448602  0.05898085426589872  1.0000
  C   C18       1.0  0.019078749107955158  0.7118146426016488  0.9779011426810809  1.0000
  C   C19       1.0  0.02434772207214443  0.7230752614627696  0.8273478840403152  1.0000
  C   C20       1.0  0.09749896231720447  0.652077420782776  0.7576419141177189  1.0000
  C   C21       1.0  0.1663337202830486  0.5690752302039186  0.8374660790965344  1.0000
  C   C22       1.0  0.9538559751464107  0.8062542226319127  0.7439641822380261  1.0000
  C   C23       1.0  0.8948318613430225  0.8759052455222236  0.6741150693722  1.0000
  C   C24       1.0  0.8232167180758537  0.9604149855885799  0.5893535044576739  1.0000
  H   H11       1.0  0.3862138922071807  0.4455756178965915  0.10364120162527259  1.0000
  H   H12       1.0  0.08327165003361169  0.6280029972907362  0.17576231862231761  1.0000
  H   H13       1.0  0.962434962493196  0.7659823564589501  0.0328536116736269  1.0000
  H   H14       1.0  0.0993316690271977  0.6588602823185258  0.6405128439390502  1.0000
  H   H15       1.0  0.3154019089225151  0.48565810184995994  0.5636673324493168  1.0000
  H   H16       1.0  0.8428813363470988  0.964571992347824  0.4733645859712837  1.0000
  H   H17       1.0  0.7508911350984713  0.9090098171741964  0.6042507742009776  1.0000
  H   H18       1.0  0.8215486177174651  0.07177420284869741  0.6261418739305253  1.0000
  Zn  Zn1       1.0  0.05865884658316234  0.5653585958262313  0.4142303453818643  1.0000
  Zn  Zn2       1.0  0.270407562581624  0.5654980460023273  0.41422028805852773  1.0000
  C   C25       1.0  0.16561254781794044  0.5619513080447069  0.6774484674299118  1.0000
  C   C26       1.0  0.16345618693899122  0.5689071562199182  0.15100231199589564  1.0000
  C   C27       1.0  0.16634719187157487  0.8287821129441546  0.40915304195940805  1.0000
  C   C28       1.0  0.16272145886098377  0.3020746192118662  0.4192978098979465  1.0000
  O   O2        1.0  0.24405338890508288  0.5713450279411558  0.2047016923746281  1.0000
  O   O3        1.0  0.24572771240766778  0.5596181842195318  0.6237410361132606  1.0000
  O   O4        1.0  0.2463198698729061  0.7750874459107084  0.40709058568133627  1.0000
  O   O5        1.0  0.2434611587978215  0.355875775588144  0.42135203477055083  1.0000
  O   O6        1.0  0.08560517810749892  0.774980866194332  0.40709859866569625  1.0000
  O   O7        1.0  0.08501303240716762  0.5595133365656766  0.6237489766619277  1.0000
  O   O8        1.0  0.08333870126522827  0.5712401151004758  0.20470789996407857  1.0000
  O   O9        1.0  0.08274647154052439  0.3557708533632167  0.4213583503918581  1.0000
