data_image0
_chemical_formula_structural       NC5NC3BrH3C6NCH9C9H10Zn2C4O8
_chemical_formula_sum              "N3 C28 Br1 H22 Zn2 O8"
_cell_length_a       13.839083392302014
_cell_length_b       9.273386996610926
_cell_length_c       10.297187173949778
_cell_angle_alpha    85.47297527559209
_cell_angle_beta     89.97508670927832
_cell_angle_gamma    89.42455387291925

_space_group_name_H-M_alt    "P 1"
_space_group_IT_number       1

loop_
  _space_group_symop_operation_xyz
  'x, y, z'

loop_
  _atom_site_type_symbol
  _atom_site_label
  _atom_site_symmetry_multiplicity
  _atom_site_fract_x
  _atom_site_fract_y
  _atom_site_fract_z
  _atom_site_occupancy
  N   N1        1.0  0.8992740397221056  0.579288236201373  0.5648098613844557  1.0000
  C   C1        1.0  0.8277184261744824  0.5156158955881598  0.5671251102665331  1.0000
  C   C2        1.0  0.738565265468386  0.4363854891849208  0.5700059382516582  1.0000
  C   C3        1.0  0.6504735910966388  0.5126223428935486  0.5672341312441345  1.0000
  C   C4        1.0  0.5629517524507991  0.43785892426560413  0.5699523132840809  1.0000
  C   C5        1.0  0.47264114198319623  0.5164483112366447  0.567094828306129  1.0000
  N   N2        1.0  0.40004310198205717  0.5796280172138026  0.5647974568251392  1.0000
  C   C6        1.0  0.5634579430220497  0.2865469984076208  0.5754536766301181  1.0000
  C   C7        1.0  0.6511054232685061  0.2101888183519767  0.5782298124973791  1.0000
  C   C8        1.0  0.73882830530954  0.28423776715719384  0.5755376251631363  1.0000
  Br  Br1       1.0  0.8570043958571335  0.17409414463319225  0.5795422810305187  1.0000
  H   H1        1.0  0.6500262458424123  0.629876279331524  0.5629708605437855  1.0000
  H   H2        1.0  0.49617678695036366  0.22766592290230478  0.5775942196713035  1.0000
  H   H3        1.0  0.6507878213741959  0.09318420884688595  0.58248367816457  1.0000
  C   C9        1.0  0.15263437294946747  0.1558062303786345  0.5654419141718519  1.0000
  C   C10       1.0  0.1696402736883751  0.23927731575431735  0.4479911430922181  1.0000
  C   C11       1.0  0.17754815162561455  0.17476373890715058  0.3305333366433387  1.0000
  C   C12       1.0  0.16857016502473596  0.02445657171363869  0.32752318005251796  1.0000
  C   C13       1.0  0.15326723393448227  0.9400236715913964  0.4445659128309696  1.0000
  C   C14       1.0  0.14669206706592067  0.003098882309912296  0.5641767036890021  1.0000
  N   N3        1.0  0.1756620099919535  0.9549056851397346  0.20764036521588886  1.0000
  C   C15       1.0  0.1918015578040324  0.03279580795379533  0.08087958812991025  1.0000
  H   H4        1.0  0.17230397468138392  0.41799344142490047  0.7787031546827465  1.0000
  H   H5        1.0  0.17456928674244132  0.3559263354376092  0.4463973625100297  1.0000
  H   H6        1.0  0.18976345249728976  0.24336208606556253  0.24229850803110575  1.0000
  H   H7        1.0  0.14870704569495374  0.8236192280546897  0.4425168282987214  1.0000
  H   H8        1.0  0.1821634102409735  0.8718042369060519  0.880557773874113  1.0000
  H   H9        1.0  0.1688296786758992  0.8425342952264121  0.21033416499332724  1.0000
  H   H10       1.0  0.13190707731900964  0.11132564913172625  0.05831170135126328  1.0000
  H   H11       1.0  0.2617405693178423  0.09039503574958374  0.08108747030475172  1.0000
  H   H12       1.0  0.19426326477034617  0.9553503741937265  0.003978873782651163  1.0000
  C   C16       1.0  0.14979133969917327  0.5794005032354479  0.18335621750397357  1.0000
  C   C17       1.0  0.05158983344337554  0.6189598861521799  0.1798175567829976  1.0000
  C   C18       1.0  0.0012783090790631259  0.6392270820616357  0.06138819318590416  1.0000
  C   C19       1.0  0.05120916002923126  0.6191126843484474  0.9445946125326591  1.0000
  C   C20       1.0  0.14953512954994652  0.5795046555016609  0.9462623777253283  1.0000
  C   C21       1.0  0.19818412442721933  0.559905798623636  0.06603178596647295  1.0000
  C   C22       1.0  0.8950663044596965  0.6820130868449015  0.06699304913666702  1.0000
  C   C23       1.0  0.8278248770594597  0.6239402539403869  0.9668095268587691  1.0000
  C   C24       1.0  0.8554420297788008  0.7831196016117496  0.9554716476264131  1.0000
  H   H13       1.0  0.18763403885076158  0.5641700983954754  0.5122571677822281  1.0000
  H   H14       1.0  0.013678735962950443  0.6342323398939984  0.26987379726371863  1.0000
  H   H15       1.0  0.01435007420623546  0.6339576449311292  0.8519662163826531  1.0000
  H   H16       1.0  0.27394846461318667  0.5293841859199409  0.0680345908804818  1.0000
  H   H17       1.0  0.3352416637843485  0.504677778792707  0.7421971956432576  1.0000
  H   H18       1.0  0.860928168063196  0.695766452260423  0.16305060117042977  1.0000
  H   H19       1.0  0.8610052753578098  0.5588466927760795  0.8923809709339321  1.0000
  H   H20       1.0  0.752861812088038  0.6043687011761195  0.001959112032561271  1.0000
  H   H21       1.0  0.9053988134078949  0.8147186100409962  0.8741568786821885  1.0000
  H   H22       1.0  0.7966191096553334  0.8565818029411764  0.9839923238753876  1.0000
  Zn  Zn1       1.0  0.04378520144112886  0.5793824226961057  0.5648137945820383  1.0000
  Zn  Zn2       1.0  0.2555320117539055  0.5795220074253207  0.5648042015414327  1.0000
  C   C25       1.0  0.14962170143783715  0.5737376515411806  0.8020653571230586  1.0000
  C   C26       1.0  0.1496978112167502  0.585168600417793  0.3275527636720459  1.0000
  C   C27       1.0  0.14781207038304836  0.8429418396917581  0.5592395208051035  1.0000
  C   C28       1.0  0.15150738214995196  0.3159626789332832  0.5703786718354624  1.0000
  O   O1        1.0  0.23002327733042804  0.5871511042907107  0.3759428107073565  1.0000
  O   O2        1.0  0.23000717262231718  0.5718600008510712  0.753667656888551  1.0000
  O   O3        1.0  0.22854478895779784  0.7892457868045524  0.5575840738377889  1.0000
  O   O4        1.0  0.2314855887004359  0.3697653285965494  0.5720262963498244  1.0000
  O   O5        1.0  0.06783155223579554  0.7891391014788138  0.5575916997700854  1.0000
  O   O6        1.0  0.06929392376309847  0.5717550488132004  0.7536752109718252  1.0000
  O   O7        1.0  0.06931002941256414  0.5870461017661655  0.375948803120431  1.0000
  O   O8        1.0  0.0707723408182801  0.3696603157666207  0.5720323861676324  1.0000
