data_image0
_chemical_formula_structural       NC5NC3BrH3C9H10C7OH5Zn2C4O8
_chemical_formula_sum              "N2 C28 Br1 H18 O9 Zn2"
_cell_length_a       13.839083392302014
_cell_length_b       10.297183801781404
_cell_length_c       9.274074313596557
_cell_angle_alpha    86.09469829957582
_cell_angle_beta     90.2343589418284
_cell_angle_gamma    90.02359494799444

_space_group_name_H-M_alt    "P 1"
_space_group_IT_number       1

loop_
  _space_group_symop_operation_xyz
  'x, y, z'

loop_
  _atom_site_type_symbol
  _atom_site_label
  _atom_site_symmetry_multiplicity
  _atom_site_fract_x
  _atom_site_fract_y
  _atom_site_fract_z
  _atom_site_occupancy
  N   N1        1.0  0.9055098156538783  0.4081766517919596  0.4094713514115802  1.0000
  C   C1        1.0  0.8335157182532945  0.35086493118096285  0.41196448357625925  1.0000
  C   C2        1.0  0.7438169315498993  0.2795493338649515  0.415066644299505  1.0000
  C   C3        1.0  0.6562502684449436  0.34817042443941304  0.4120818863126603  1.0000
  C   C4        1.0  0.5682135652802601  0.28087557802753205  0.41500889769161065  1.0000
  C   C5        1.0  0.4784441665020934  0.35161419160005525  0.411931874568392  1.0000
  N   N2        1.0  0.4062812176720088  0.408482489519197  0.40945799217720014  1.0000
  C   C6        1.0  0.5676777339843242  0.14467912090508595  0.42093291662984056  1.0000
  C   C7        1.0  0.6547993671630883  0.07594882321324839  0.423922333359132  1.0000
  C   C8        1.0  0.7430321935297305  0.14260057271537896  0.4210233143870499  1.0000
  Br  Br1       1.0  0.8604497713441991  0.04345986744654051  0.4253356402788493  1.0000
  H   H1        1.0  0.656610401342295  0.4537111501458855  0.40749107361325065  1.0000
  H   H2        1.0  0.49999108779135015  0.09168003188085175  0.42323790419353013  1.0000
  H   H3        1.0  0.6536760029820936  0.9706325143613336  0.4285030073350282  1.0000
  C   C9        1.0  0.15590408004736922  0.026855808586485622  0.4096689028268352  1.0000
  C   C10       1.0  0.15267260629692503  0.035373105737437134  0.2580042799465967  1.0000
  C   C11       1.0  0.1510168042908988  0.9231202786111645  0.18030205850812075  1.0000
  C   C12       1.0  0.15265967945977033  0.8001968086080781  0.25741645033662125  1.0000
  C   C13       1.0  0.1558962483694355  0.7897934297863333  0.4092729067751859  1.0000
  C   C14       1.0  0.15749640372774798  0.903590281729316  0.48440784880372934  1.0000
  C   C15       1.0  0.1475214699012297  0.9417645315447055  0.01626605960210714  1.0000
  C   C16       1.0  0.090722001193561  0.8423036855794281  0.9360360552354532  1.0000
  C   C17       1.0  0.2007941106182327  0.8426386434254574  0.9314545891270894  1.0000
  H   H4        1.0  0.1571584456894091  0.3511122803922524  0.46811014644658205  1.0000
  H   H5        1.0  0.15142528205544892  0.130083617816394  0.1994533679334205  1.0000
  H   H6        1.0  0.1514446489326513  0.7120931455660469  0.20049148588373325  1.0000
  H   H7        1.0  0.15998906926942524  0.8962915649589597  0.6014202902171184  1.0000
  H   H8        1.0  0.1619963798505297  0.5629279187736151  0.6960869940130862  1.0000
  H   H9        1.0  0.14639889510362702  0.04201333065231783  0.9635420058687824  1.0000
  H   H10       1.0  0.05865725745260675  0.7592264113183572  0.0016271288421445568  1.0000
  H   H11       1.0  0.05635346565269849  0.8822542372914098  0.834064918309022  1.0000
  H   H12       1.0  0.23559226451527238  0.7597656444346841  0.9942634204922709  1.0000
  H   H13       1.0  0.2307578753406625  0.8827825841721928  0.8268044570719786  1.0000
  C   C18       1.0  0.15474322508808402  0.40458248833688415  0.9862317150357658  1.0000
  C   C19       1.0  0.07049185555194515  0.44288256414459637  0.05610290576806509  1.0000
  C   C20       1.0  0.9909986477761356  0.491625438472173  0.9768974668542479  1.0000
  C   C21       1.0  0.9938973147071315  0.5033648868829881  0.8256112961220433  1.0000
  C   C22       1.0  0.07684403020493491  0.46349568036726274  0.7546010681533604  1.0000
  C   C23       1.0  0.15705705368176281  0.41206670660166905  0.8327101758009583  1.0000
  C   C24       1.0  0.9107785463271972  0.5556778986664275  0.7401956241483405  1.0000
  O   O1        1.0  0.8350577821454691  0.5918261892056911  0.8008851316345118  1.0000
  H   H14       1.0  0.3908415327976964  0.3716302064759309  0.0930311780633144  1.0000
  H   H15       1.0  0.9275977753767496  0.5213247172346432  0.03428537310257185  1.0000
  H   H16       1.0  0.0779636477678256  0.46979170464407294  0.637441108061898  1.0000
  H   H17       1.0  0.3157593811812558  0.38516397426217136  0.555254139773723  1.0000
  H   H18       1.0  0.9142096889472858  0.5635650331691131  0.6233219230943942  1.0000
  Zn  Zn1       1.0  0.05002165077514387  0.40826150070011574  0.4094758275055721  1.0000
  Zn  Zn2       1.0  0.2617694071333889  0.4083870976938931  0.40946534963917225  1.0000
  C   C25       1.0  0.15661761331999458  0.40547695844562215  0.6727102651960024  1.0000
  C   C26       1.0  0.15517575723727783  0.41117328164089667  0.14623105244456802  1.0000
  C   C27       1.0  0.1558770419088633  0.6455311924597469  0.40360443155495873  1.0000
  C   C28       1.0  0.1559162566197998  0.17111748753160416  0.41533696373951257  1.0000
  O   O2        1.0  0.2356780890413246  0.41342720818629936  0.19992431833660795  1.0000
  O   O3        1.0  0.23682692795826  0.40331737345211544  0.6190086324640326  1.0000
  O   O4        1.0  0.23622782802143005  0.5971642159265602  0.40170376718304257  1.0000
  O   O5        1.0  0.2362771164274955  0.21958037400629848  0.41722907555096955  1.0000
  O   O6        1.0  0.07551386922189973  0.5970682243461973  0.40171210158976867  1.0000
  O   O7        1.0  0.07611296892820162  0.4032229419254074  0.6190168892128514  1.0000
  O   O8        1.0  0.07496412533929207  0.41333271607019184  0.1999308422828836  1.0000
  O   O9        1.0  0.07556315301698424  0.2194858735542342  0.41723570755986716  1.0000
