data_image0
_chemical_formula_structural       NC8ONC5NC3OH9C14H9C12H9Zn2C4O8
_chemical_formula_sum              "N3 C46 O10 H27 Zn2"
_cell_length_a       21.006696871193384
_cell_length_b       17.567807274406366
_cell_length_c       14.994061290378351
_cell_angle_alpha    85.5564877003982
_cell_angle_beta     89.7454679628461
_cell_angle_gamma    90.61205027389732

_space_group_name_H-M_alt    "P 1"
_space_group_IT_number       1

loop_
  _space_group_symop_operation_xyz
  'x, y, z'

loop_
  _atom_site_type_symbol
  _atom_site_label
  _atom_site_symmetry_multiplicity
  _atom_site_fract_x
  _atom_site_fract_y
  _atom_site_fract_z
  _atom_site_occupancy
  N   N1        1.0  0.5992811327612817  0.8415639652904809  0.011617713379043272  1.0000
  C   C1        1.0  0.5461670721669205  0.8320843191530904  0.9950511499118122  1.0000
  C   C2        1.0  0.4800996326312942  0.8202934501181048  0.9744440979550626  1.0000
  C   C3        1.0  0.45964256343212634  0.7507483857696992  0.9442081152085173  1.0000
  C   C4        1.0  0.39546214446974104  0.7392297476088667  0.924251113593086  1.0000
  C   C5        1.0  0.3510627943390602  0.797425691599993  0.9336133605441086  1.0000
  C   C6        1.0  0.3718866658569216  0.8667864807213083  0.9650510813013176  1.0000
  C   C7        1.0  0.4360735470195986  0.8782020488955431  0.985007322622182  1.0000
  C   C8        1.0  0.282965178652258  0.784478904040564  0.9134687914941337  1.0000
  O   O1        1.0  0.2600779703047639  0.7177901469971553  0.9257640398215838  1.0000
  N   N2        1.0  0.2423161961052523  0.8463404621026813  0.8819042294407997  1.0000
  C   C9        1.0  0.17656934097902793  0.8457788693478352  0.9087915601704508  1.0000
  C   C10       1.0  0.15435935843807433  0.9008994821078874  0.9638596201745786  1.0000
  C   C11       1.0  0.0903689342005389  0.9009489379449245  0.9899331997851368  1.0000
  C   C12       1.0  0.048059592368048215  0.845988799988488  0.9608791718172485  1.0000
  C   C13       1.0  0.982176712721013  0.8460540880154112  0.9876759621629696  1.0000
  N   N3        1.0  0.9292096670763554  0.8461064954097087  0.009219532518917708  1.0000
  C   C14       1.0  0.0699920446068601  0.7910667720262463  0.9055230073125478  1.0000
  C   C15       1.0  0.13399080003782463  0.7910107993775016  0.8794657758618982  1.0000
  C   C16       1.0  0.2661625126208828  0.9063482969171014  0.819556638215351  1.0000
  O   O2        1.0  0.23110301412671402  0.9609277085973227  0.7920914398682413  1.0000
  H   H1        1.0  0.49326941121792023  0.7054287455923428  0.9360956028427516  1.0000
  H   H2        1.0  0.38058660390982385  0.6850759980744956  0.900780647539269  1.0000
  H   H3        1.0  0.33845380933873814  0.9118328217785953  0.9752213168685626  1.0000
  H   H4        1.0  0.45129436535904305  0.9320375301764772  0.009037677174865807  1.0000
  H   H5        1.0  0.18678834648326353  0.9435138805128659  0.9866846707438593  1.0000
  H   H6        1.0  0.0739128731669049  0.9437613401709183  0.03265694397602559  1.0000
  H   H7        1.0  0.0376375062116345  0.748466551587544  0.8823877637258206  1.0000
  H   H8        1.0  0.15032909038029194  0.7487595732330817  0.8359968566163147  1.0000
  H   H9        1.0  0.3145530393684966  0.9049374605677081  0.7946931515394613  1.0000
  C   C17       1.0  0.7643233984205525  0.620246024335954  0.010429880467915814  1.0000
  C   C18       1.0  0.7155729297233104  0.5818090385348377  0.967488917490601  1.0000
  C   C19       1.0  0.715676253100679  0.5022139801798491  0.9674521466821187  1.0000
  C   C20       1.0  0.764430697338714  0.4600696663115056  0.010311845458554007  1.0000
  C   C21       1.0  0.813159318959763  0.4978090700546026  0.05321573296492729  1.0000
  C   C22       1.0  0.8131733886940181  0.5774000860064309  0.05330989556639019  1.0000
  C   C23       1.0  0.764419306734932  0.3781520739126158  0.010339167713414477  1.0000
  C   C24       1.0  0.7643786818837135  0.3095253761948575  0.010373686289845025  1.0000
  C   C25       1.0  0.7643024488033923  0.22760645429808682  0.010412453376108072  1.0000
  C   C26       1.0  0.8219002403466464  0.18827175423863668  0.01114601101128753  1.0000
  C   C27       1.0  0.8218855435620092  0.10867237448939335  0.011129260369173714  1.0000
  C   C28       1.0  0.7641735064769994  0.0674186473680788  0.010415000284981879  1.0000
  C   C29       1.0  0.7064874942068767  0.1074524911549022  0.009710933030096729  1.0000
  C   C30       1.0  0.7066290203445994  0.18705084094829594  0.00970768509115171  1.0000
  H   H10       1.0  0.6773398920267856  0.6131530260731891  0.9339162685184068  1.0000
  H   H11       1.0  0.6777434126977991  0.47355876158852755  0.9340106225088531  1.0000
  H   H12       1.0  0.8511110339477435  0.4657256451567745  0.08662358871090912  1.0000
  H   H13       1.0  0.8513824774498265  0.6053283065599652  0.08694116174666106  1.0000
  H   H14       1.0  0.8668121610686376  0.21911993205469196  0.011700601272880636  1.0000
  H   H15       1.0  0.8670435518742035  0.0795287142921857  0.011657084361870842  1.0000
  H   H16       1.0  0.6612857775550878  0.07731860175930409  0.009187528736368742  1.0000
  H   H17       1.0  0.6617849671322839  0.21694052352885426  0.009178928679140384  1.0000
  H   H18       1.0  0.8222501266137356  0.8864461991895903  0.010827836578513939  1.0000
  C   C31       1.0  0.7642753636008542  0.8438423884902496  0.7484555594468212  1.0000
  C   C32       1.0  0.7990099315791241  0.7891366454838527  0.7056100603357873  1.0000
  C   C33       1.0  0.7989768675879205  0.7891064229449761  0.6123921826367522  1.0000
  C   C34       1.0  0.7642641744562793  0.8438022717510734  0.5599620219540788  1.0000
  C   C35       1.0  0.7295653943250869  0.8985044125549527  0.6029071391239698  1.0000
  C   C36       1.0  0.7295550524791086  0.8984959482566969  0.696132360022246  1.0000
  C   C37       1.0  0.7642490253100763  0.8437966040357195  0.46088876608971374  1.0000
  C   C38       1.0  0.76783522624812  0.9128083284423059  0.40690724906249975  1.0000
  C   C39       1.0  0.7678478083850898  0.9128084550125972  0.3136827055580068  1.0000
  C   C40       1.0  0.7642215328615993  0.843822277881103  0.2723893760128977  1.0000
  C   C41       1.0  0.7606073142318436  0.7747831699590418  0.3262741106287024  1.0000
  C   C42       1.0  0.7606483869849456  0.7747806941597526  0.4194949198660365  1.0000
  H   H19       1.0  0.8263957571981962  0.7463923292148431  0.7440831926210506  1.0000
  H   H20       1.0  0.8268478283653836  0.7468482206332303  0.5812531734053845  1.0000
  H   H21       1.0  0.7016844267055051  0.9407562428704354  0.5644487739732418  1.0000
  H   H22       1.0  0.702175104162666  0.9412517962355269  0.7271576511762807  1.0000
  H   H23       1.0  0.7714992533105367  0.9668505256704258  0.4367752253966688  1.0000
  H   H24       1.0  0.7708653760753308  0.9669257519642337  0.2740154739962104  1.0000
  H   H25       1.0  0.7678003691512388  0.913638865316695  0.05323742175977175  1.0000
  H   H26       1.0  0.7575796265913848  0.720671371918491  0.2964414357178493  1.0000
  H   H27       1.0  0.7569955585709504  0.7207399594903352  0.45922467386791876  1.0000
  Zn  Zn1       1.0  0.6944913827912009  0.8428728035549147  0.010930797847394483  1.0000
  Zn  Zn2       1.0  0.8339994124313785  0.8447914291323416  0.009913741689680839  1.0000
  C   C43       1.0  0.7642312989157423  0.8407928448977947  0.17335475240196174  1.0000
  C   C44       1.0  0.7642610193991324  0.8468723694285101  0.847489863555214  1.0000
  C   C45       1.0  0.7641989160758185  0.9828936031062897  0.00686296905963146  1.0000
  C   C46       1.0  0.7642933549364911  0.7047706957881722  0.013981694835832219  1.0000
  O   O3        1.0  0.8171987766637817  0.8486140454032608  0.8803407133024621  1.0000
  O   O4        1.0  0.8171769083708561  0.8405067869597677  0.1397317237838317  1.0000
  O   O5        1.0  0.8171500450315969  0.9552549364716678  0.005288435954711733  1.0000
  O   O6        1.0  0.8172255924034484  0.7338659006859074  0.014783934590623873  1.0000
  O   O7        1.0  0.7112651552118877  0.9537983313474445  0.006060605288830233  1.0000
  O   O8        1.0  0.7112920182464694  0.8390510966134834  0.14050384552204165  1.0000
  O   O9        1.0  0.7113138867008393  0.8471583285659936  0.8811117624963387  1.0000
  O   O10       1.0  0.7113407024328555  0.7324101784001898  0.01555505066783857  1.0000
