data_image0
_chemical_formula_structural       NC5NC3BrH3C7NH5C9H10Zn2C4O8
_chemical_formula_sum              "N3 C28 Br1 H18 Zn2 O8"
_cell_length_a       13.839083392302014
_cell_length_b       9.275154477615127
_cell_length_c       10.297187173949778
_cell_angle_alpha    85.79368962705624
_cell_angle_beta     89.97508670927832
_cell_angle_gamma    89.45968127068964

_space_group_name_H-M_alt    "P 1"
_space_group_IT_number       1

loop_
  _space_group_symop_operation_xyz
  'x, y, z'

loop_
  _atom_site_type_symbol
  _atom_site_label
  _atom_site_symmetry_multiplicity
  _atom_site_fract_x
  _atom_site_fract_y
  _atom_site_fract_z
  _atom_site_occupancy
  N   N1        1.0  0.899924558187688  0.5783030497802053  0.5727927381605169  1.0000
  C   C1        1.0  0.8283427176142653  0.5146704290382209  0.5747861405059662  1.0000
  C   C2        1.0  0.7391569214200929  0.4354894478879172  0.5772664801212448  1.0000
  C   C3        1.0  0.6510966494737919  0.5116787437718586  0.5748800298807757  1.0000
  C   C4        1.0  0.5635440153194107  0.43696196381514824  0.5772203029712455  1.0000
  C   C5        1.0  0.4732657763000664  0.5155023254118988  0.5747600661825187  1.0000
  N   N2        1.0  0.40069376040551274  0.5786426188315543  0.5727820511027248  1.0000
  C   C6        1.0  0.5639878795846853  0.28574442886776596  0.58195682527612  1.0000
  C   C7        1.0  0.6516039074306325  0.20943388232221305  0.5843469911043118  1.0000
  C   C8        1.0  0.7393572906857266  0.28343663815442377  0.5820291012669783  1.0000
  Br  Br1       1.0  0.857488012402808  0.17336172506471084  0.5854770107810838  1.0000
  H   H1        1.0  0.6506976018317852  0.6288595352427793  0.5712094462559312  1.0000
  H   H2        1.0  0.4966824700385473  0.2269000843623534  0.5837997403356443  1.0000
  H   H3        1.0  0.6512381106233884  0.09250226224986569  0.5880094299765071  1.0000
  C   C9        1.0  0.1531104565916186  0.15508521911699782  0.5712842034402812  1.0000
  C   C10       1.0  0.12662588849085288  0.23823069577707168  0.4567550191597063  1.0000
  C   C11       1.0  0.0922796903129488  0.17215416119914925  0.3482928137439232  1.0000
  C   C12       1.0  0.08385236373653848  0.02202857672981583  0.35308241838721877  1.0000
  C   C13       1.0  0.11123337883725615  0.9376756761351859  0.4650009691832995  1.0000
  C   C14       1.0  0.1475171808819753  0.001849357029386261  0.5743018429899021  1.0000
  C   C15       1.0  0.06451004492352008  0.2588803902022485  0.23238327469888428  1.0000
  N   N3        1.0  0.042190953674000164  0.3285923815610261  0.13922169525553096  1.0000
  H   H4        1.0  0.1717391016672014  0.23181247813765687  0.8901328673955786  1.0000
  H   H5        1.0  0.13057337232113797  0.35519224600431887  0.45290073986166557  1.0000
  H   H6        1.0  0.05694028270204465  0.9698723622575733  0.2697224125181277  1.0000
  H   H7        1.0  0.1061594320865733  0.8212046240826016  0.4648867610803382  1.0000
  H   H8        1.0  0.16416115960078922  0.7031195904531952  0.7879394287793209  1.0000
  C   C16       1.0  0.15044190440823257  0.5784152467802257  0.19133966175966144  1.0000
  C   C17       1.0  0.05225669290375668  0.6179499518921174  0.18800096306709957  1.0000
  C   C18       1.0  0.0019535167211643966  0.638204504785721  0.06967404468794247  1.0000
  C   C19       1.0  0.0518760824281219  0.6181026547703143  0.9527787911704991  1.0000
  C   C20       1.0  0.1501857371599597  0.5785193340745125  0.9542463484426769  1.0000
  C   C21       1.0  0.19882665914843933  0.5589327032912716  0.0739166897397241  1.0000
  C   C22       1.0  0.8957591359183638  0.6809638189434493  0.0754951723718158  1.0000
  C   C23       1.0  0.8284937879637363  0.6229272128435825  0.9750181075609672  1.0000
  C   C24       1.0  0.8561765076281262  0.7820072617750058  0.9644848370685652  1.0000
  H   H9        1.0  0.18827833006308992  0.5631943429215767  0.5201636264425702  1.0000
  H   H10       1.0  0.014351886240261184  0.6332128784218034  0.27813440168904346  1.0000
  H   H11       1.0  0.015023111335014104  0.6329383548182472  0.8602254322989075  1.0000
  H   H12       1.0  0.27457842729580917  0.5284301304801673  0.07576521612012854  1.0000
  H   H13       1.0  0.33586144974704957  0.5037391356230057  0.7498029366476167  1.0000
  H   H14       1.0  0.8616266646170385  0.6947086047795488  0.17162224396435954  1.0000
  H   H15       1.0  0.8616473738268656  0.55787425813166  0.9002605212123108  1.0000
  H   H16       1.0  0.7535226613502523  0.6033678691413364  0.010068763805604734  1.0000
  H   H17       1.0  0.9061463070816952  0.8135865582141849  0.8833297926032264  1.0000
  H   H18       1.0  0.7973838470338517  0.8554236361543169  0.9933768449639536  1.0000
  Zn  Zn1       1.0  0.044435758702703554  0.5783971775198262  0.5727971474454683  1.0000
  Zn  Zn2       1.0  0.2561826265112823  0.5785366751737522  0.5727882599680829  1.0000
  C   C25       1.0  0.1502699335837132  0.5727559276675771  0.8100201771882795  1.0000
  C   C26       1.0  0.15035075184025182  0.5841797457270557  0.33556536410580384  1.0000
  C   C27       1.0  0.14857118937743616  0.8417921817421523  0.5685550955523031  1.0000
  C   C28       1.0  0.1520494352109707  0.3151417593998309  0.5770305088257053  1.0000
  O   O1        1.0  0.23067703455937694  0.5861610128808928  0.3839654321643602  1.0000
  O   O2        1.0  0.23065463135241115  0.5708794482873789  0.7616129859351315  1.0000
  O   O3        1.0  0.22928179022020292  0.788129625351002  0.5666282294964813  1.0000
  O   O4        1.0  0.23204980340130033  0.3689108460701891  0.5789500912465739  1.0000
  O   O5        1.0  0.06856850955386354  0.7880230065773546  0.5666353161631836  1.0000
  O   O6        1.0  0.06994133926280766  0.570774561720345  0.7616200095141148  1.0000
  O   O7        1.0  0.06996374339033173  0.586056075858679  0.3839708938179469  1.0000
  O   O8        1.0  0.07133651226371818  0.36880589874902037  0.5789556502528033  1.0000
