data_image0
_chemical_formula_structural       NC9NC3OH6C8NH7C7F3H5Zn2C4O8
_chemical_formula_sum              "N3 C31 O9 H18 F3 Zn2"
_cell_length_a       15.78231758774541
_cell_length_b       9.27426342843186
_cell_length_c       9.272721663655245
_cell_angle_alpha    85.8307011284179
_cell_angle_beta     90.60221336655935
_cell_angle_gamma    90.24871893605766

_space_group_name_H-M_alt    "P 1"
_space_group_IT_number       1

loop_
  _space_group_symop_operation_xyz
  'x, y, z'

loop_
  _atom_site_type_symbol
  _atom_site_label
  _atom_site_symmetry_multiplicity
  _atom_site_fract_x
  _atom_site_fract_y
  _atom_site_fract_z
  _atom_site_occupancy
  N   N1        1.0  0.7993263656754875  0.5609140027802815  0.41104429347273475  1.0000
  C   C1        1.0  0.7503611793020336  0.46991961280230293  0.43784348165620873  1.0000
  C   C2        1.0  0.6895692108597795  0.35697345878020625  0.47110817734614785  1.0000
  C   C3        1.0  0.7085559657490553  0.21509440643801847  0.512805824033197  1.0000
  C   C4        1.0  0.6314982922190462  0.1463347161129338  0.5330969128803245  1.0000
  C   C5        1.0  0.5702180771830787  0.2513417032754146  0.5022817171189853  1.0000
  C   C6        1.0  0.4770351157366496  0.23192807313432917  0.508080867394008  1.0000
  C   C7        1.0  0.4238563459925377  0.35096565329784024  0.4729647394173786  1.0000
  C   C8        1.0  0.33557448121510164  0.33504698546866046  0.4777278544087789  1.0000
  C   C9        1.0  0.281715642993288  0.4575479757326204  0.4415808481469803  1.0000
  N   N2        1.0  0.2384259490204977  0.5560229593141128  0.4125218891042257  1.0000
  C   C10       1.0  0.299789268079267  0.19991357906823978  0.5176616188931149  1.0000
  C   C11       1.0  0.3520383020145  0.08112213219753396  0.5527099831120226  1.0000
  C   C12       1.0  0.44013242623125154  0.09660348096832161  0.548076306296289  1.0000
  O   O1        1.0  0.6072690066002313  0.37578804114834324  0.4656534920645637  1.0000
  H   H1        1.0  0.7707881565160527  0.16724739155762514  0.5268113060326785  1.0000
  H   H2        1.0  0.6222276833872045  0.033275097143772976  0.5663415780732879  1.0000
  H   H3        1.0  0.4509617967643591  0.4561233759437729  0.4418839472445502  1.0000
  H   H4        1.0  0.2316091225476199  0.1864312817724372  0.521693372986429  1.0000
  H   H5        1.0  0.32420595618797177  0.9766833248886457  0.583578761193593  1.0000
  H   H6        1.0  0.47877128119496537  0.0025123394208406125  0.5758462391605537  1.0000
  C   C13       1.0  0.01620065518788281  0.1349165362053668  0.41208050888672765  1.0000
  C   C14       1.0  0.004548493427238174  0.21767901338992907  0.28025917520943433  1.0000
  C   C15       1.0  0.001212915641170432  0.1520843843753199  0.1496587475769524  1.0000
  C   C16       1.0  0.010135738032023502  0.002191926217159913  0.14765159824513696  1.0000
  C   C17       1.0  0.019509334921579122  0.917945349971487  0.2785813539401887  1.0000
  C   C18       1.0  0.021559745698376476  0.9820093697133078  0.4114981800422677  1.0000
  C   C19       1.0  0.005275947017161491  0.9314820494934059  0.006944074634699368  1.0000
  C   C20       1.0  0.9171957416547996  0.8933500023804467  0.9746002279053334  1.0000
  N   N3        1.0  0.8476759644516964  0.8632518967521826  0.9490814549385407  1.0000
  H   H7        1.0  0.0910861744862872  0.2141832308901159  0.7447772224546056  1.0000
  H   H8        1.0  0.9998521849058479  0.33433719491887737  0.27788170205712426  1.0000
  H   H9        1.0  0.9924588599174817  0.2185584703147401  0.04970027286092304  1.0000
  H   H10       1.0  0.023157647961812498  0.801404670115135  0.27669425816827076  1.0000
  H   H11       1.0  0.06869067020369996  0.6852350814485259  0.6374358151311463  1.0000
  H   H12       1.0  0.04445098835043426  0.8319611920463533  0.01265613835564761  1.0000
  H   H13       1.0  0.02982040116827077  0.005526577402694676  0.9172917115865876  1.0000
  C   C21       1.0  0.0166236205652448  0.556148527247412  0.9883401736281501  1.0000
  C   C22       1.0  0.051937645999095894  0.43777227529453033  0.07126495911183905  1.0000
  C   C23       1.0  0.0947321149163935  0.32789261516591495  0.00558149249574869  1.0000
  C   C24       1.0  0.09960434896416576  0.33448060710812433  0.8544433614094711  1.0000
  C   C25       1.0  0.06376918112994828  0.4498594886107201  0.7705506486659384  1.0000
  C   C26       1.0  0.021136794355431032  0.5607773561039981  0.8352384724470534  1.0000
  C   C27       1.0  0.13018625062690714  0.1999752681486302  0.0961385270190005  1.0000
  F   F1        1.0  0.15898524725524993  0.2415770893073166  0.2284386751101393  1.0000
  F   F2        1.0  0.1973467029440823  0.13956398062242825  0.027286891005999354  1.0000
  F   F3        1.0  0.06732524224535297  0.0968487864196661  0.11903628900216323  1.0000
  H   H14       1.0  0.9650894541655539  0.9002071723099401  0.0641427230660323  1.0000
  H   H15       1.0  0.0476745964088143  0.4326952250418277  0.18809987917530702  1.0000
  H   H16       1.0  0.13038496870889693  0.24940409989576207  0.8006991298909827  1.0000
  H   H17       1.0  0.06740278252251386  0.4502803474545262  0.6539079313995853  1.0000
  H   H18       1.0  0.8706281074858405  0.8057428914745697  0.7132687396928956  1.0000
  Zn  Zn1       1.0  0.9260410366761215  0.5594987460851322  0.4114790185983624  1.0000
  Zn  Zn2       1.0  0.11171123787037768  0.5574265085637375  0.412098959795151  1.0000
  C   C28       1.0  0.020245448908684963  0.5541564751207871  0.6751605210926837  1.0000
  C   C29       1.0  0.017508865418145433  0.5627705775393343  0.1484176043505665  1.0000
  C   C30       1.0  0.020511775861990374  0.8218593987813623  0.4058620209410009  1.0000
  C   C31       1.0  0.017242464555255573  0.29506592211919513  0.4177161823604325  1.0000
  O   O2        1.0  0.08826679559374634  0.5642003023444504  0.20237632120557314  1.0000
  O   O3        1.0  0.09040689622771175  0.5511528796273815  0.6216719109133981  1.0000
  O   O4        1.0  0.09062101675465234  0.7673263948449567  0.4042114625068147  1.0000
  O   O5        1.0  0.0880526111992479  0.3480267975608633  0.41983666127453123  1.0000
  O   O6        1.0  0.9496995999870939  0.7688984577966886  0.40374131689984094  1.0000
  O   O7        1.0  0.9494854900095804  0.552726675047359  0.6212016872291002  1.0000
  O   O8        1.0  0.9473453798751108  0.5657740380264624  0.20190436387038058  1.0000
  O   O9        1.0  0.9471311959880127  0.349600523517569  0.4193648120578233  1.0000
