data_image0
_chemical_formula_structural       NC5NC3OH4C6BrH5C7ONH5Zn2C4O8
_chemical_formula_sum              "N3 C25 O10 H14 Br1 Zn2"
_cell_length_a       13.84702359539666
_cell_length_b       9.276564384272257
_cell_length_c       9.273042158839658
_cell_angle_alpha    86.1127255114725
_cell_angle_beta     90.0789287002439
_cell_angle_gamma    90.58678901707502

_space_group_name_H-M_alt    "P 1"
_space_group_IT_number       1

loop_
  _space_group_symop_operation_xyz
  'x, y, z'

loop_
  _atom_site_type_symbol
  _atom_site_label
  _atom_site_symmetry_multiplicity
  _atom_site_fract_x
  _atom_site_fract_y
  _atom_site_fract_z
  _atom_site_occupancy
  N   N1        1.0  0.9183406164507767  0.5615183715089278  0.4084554349104559  1.0000
  C   C1        1.0  0.8462103378124894  0.553513131704398  0.4715173234227508  1.0000
  C   C2        1.0  0.756381098139528  0.5435449170142361  0.5500426619585617  1.0000
  C   C3        1.0  0.6687803430568253  0.5531748378271328  0.474181548229927  1.0000
  C   C4        1.0  0.5809353596720044  0.5436568007806413  0.5491608632126355  1.0000
  C   C5        1.0  0.491067210572472  0.5535715605371743  0.4710567340515137  1.0000
  N   N2        1.0  0.41882484969746175  0.5615422685946392  0.40826724086166943  1.0000
  C   C6        1.0  0.5806858275472164  0.5244801095103737  0.7002266747719788  1.0000
  C   C7        1.0  0.6679063663916138  0.5148411838989009  0.7761558219357219  1.0000
  C   C8        1.0  0.7560668864889553  0.5242978970337382  0.7016612027911062  1.0000
  O   O1        1.0  0.843007824109618  0.5146425351795367  0.7777217568862904  1.0000
  H   H1        1.0  0.6689782401166877  0.5680314061541138  0.35714875606612506  1.0000
  H   H2        1.0  0.5131440269453187  0.5169889040709621  0.7592388461666344  1.0000
  H   H3        1.0  0.6669300655439115  0.5000140905898374  0.8929571971672863  1.0000
  H   H4        1.0  0.844563841556213  0.5007657462015873  0.8870361373532658  1.0000
  C   C9        1.0  0.16567817810846552  0.13805309395056664  0.40873098962231014  1.0000
  C   C10       1.0  0.15314908394518634  0.22016464300189797  0.2770001308067034  1.0000
  C   C11       1.0  0.14960899355750445  0.15380142014011589  0.14649636717362036  1.0000
  C   C12       1.0  0.1585736577919168  0.004381551193790572  0.1452454489648891  1.0000
  C   C13       1.0  0.16939913154189348  0.9205556158360496  0.27498488424682144  1.0000
  C   C14       1.0  0.171496452988416  0.9849965429889931  0.4080040696975784  1.0000
  Br  Br1       1.0  0.1544401182046422  0.9141379579245092  0.966171211230797  1.0000
  H   H5        1.0  0.1376318971105639  0.40307158685358496  0.6430712591115384  1.0000
  H   H6        1.0  0.14838041965824345  0.3367948252482036  0.2745343692392823  1.0000
  H   H7        1.0  0.14081397921017036  0.21896406141343405  0.046101032763049554  1.0000
  H   H8        1.0  0.17386380514173055  0.8042831250553345  0.2718756732690275  1.0000
  H   H9        1.0  0.22503157042347843  0.6894302215742177  0.6324704366123568  1.0000
  C   C15       1.0  0.16809490224037082  0.5570679697962246  0.9851066473576942  1.0000
  C   C16       1.0  0.07945837763326202  0.5662467194921796  0.05781293492383077  1.0000
  C   C17       1.0  0.9926616060144178  0.5893743040219208  0.9815696262503146  1.0000
  C   C18       1.0  0.9950247939801782  0.6015813397947747  0.8300595922010139  1.0000
  C   C19       1.0  0.08206581211628738  0.5902852517801931  0.7563462857096339  1.0000
  C   C20       1.0  0.1690797536102302  0.5659816580192888  0.8316284886965515  1.0000
  C   C21       1.0  0.9004468549846516  0.5993251776242323  0.06145581178601978  1.0000
  O   O2        1.0  0.8936117324858258  0.5435193999055865  0.18887675424758665  1.0000
  N   N3        1.0  0.8188039522848651  0.6724815535870254  0.9978874572196021  1.0000
  H   H10       1.0  0.40277743095352025  0.6121621954489374  0.08493130397756099  1.0000
  H   H11       1.0  0.9294507349887653  0.6158364626670527  0.7674489227066408  1.0000
  H   H12       1.0  0.3272172201678066  0.5963994472608739  0.5486212066560632  1.0000
  H   H13       1.0  0.8238825537106131  0.7347544725877948  0.9001664352873635  1.0000
  H   H14       1.0  0.7535299651600003  0.672316123341177  0.054154608024462814  1.0000
  Zn  Zn1       1.0  0.06276953653266394  0.5615214946521625  0.40840944044875616  1.0000
  Zn  Zn2       1.0  0.2743958381798164  0.5615274697001786  0.40832500846908704  1.0000
  C   C22       1.0  0.16885195018083787  0.5585518865650037  0.6716226422829701  1.0000
  C   C23       1.0  0.16831574814863925  0.564498898887912  0.14511194561946872  1.0000
  C   C24       1.0  0.17038501892262192  0.8248457459125715  0.4023978684506553  1.0000
  C   C25       1.0  0.16678259538062679  0.298203307766046  0.4143367978117891  1.0000
  O   O3        1.0  0.24870090140862813  0.5669887627559507  0.19877914928569962  1.0000
  O   O4        1.0  0.24908625521548447  0.5560654653538861  0.6178909427197934  1.0000
  O   O5        1.0  0.2503231467245901  0.7711011402731847  0.4004900321853233  1.0000
  O   O6        1.0  0.24746393763094274  0.3519530970126359  0.4161799517692053  1.0000
  O   O7        1.0  0.08970136486386937  0.7710958673391561  0.4005544971698676  1.0000
  O   O8        1.0  0.08846448516332317  0.5560619241936069  0.6179553293655615  1.0000
  O   O9        1.0  0.0880791290594427  0.5669851530955394  0.19884180305968524  1.0000
  O   O10       1.0  0.08684216533266853  0.3519494781756918  0.41624271361538456  1.0000
