data_image0
_chemical_formula_structural       NC9NC3OH6C6OCH8C6H4Zn2C4O8
_chemical_formula_sum              "N2 C29 O10 H18 Zn2"
_cell_length_a       15.78231758774541
_cell_length_b       9.273888216677433
_cell_length_c       10.681121600428288
_cell_angle_alpha    85.7605498729626
_cell_angle_beta     90.08384876913414
_cell_angle_gamma    89.05820199757645

_space_group_name_H-M_alt    "P 1"
_space_group_IT_number       1

loop_
  _space_group_symop_operation_xyz
  'x, y, z'

loop_
  _atom_site_type_symbol
  _atom_site_label
  _atom_site_symmetry_multiplicity
  _atom_site_fract_x
  _atom_site_fract_y
  _atom_site_fract_z
  _atom_site_occupancy
  N   N1        1.0  0.7886381869052833  0.569362587845734  0.6257403071082445  1.0000
  C   C1        1.0  0.7406424960754973  0.4782354255005579  0.6486847659319355  1.0000
  C   C2        1.0  0.6810539051869925  0.36512446657130426  0.6771647543345163  1.0000
  C   C3        1.0  0.7015527660788222  0.2230388746145551  0.7128636364344403  1.0000
  C   C4        1.0  0.6252274771850864  0.15417863468510312  0.7302365999823646  1.0000
  C   C5        1.0  0.5628278863894994  0.2593382342867376  0.7038551470555254  1.0000
  C   C6        1.0  0.4698513374244017  0.23989583154441174  0.7088211624047196  1.0000
  C   C7        1.0  0.4154045914598137  0.3591074185507517  0.6787553426892441  1.0000
  C   C8        1.0  0.3272919375979902  0.34316511442285336  0.6828342611031326  1.0000
  C   C9        1.0  0.2721282795246241  0.46584522439338577  0.6518857089383767  1.0000
  N   N2        1.0  0.22778968635433092  0.5644642049229683  0.6270058243598484  1.0000
  C   C10       1.0  0.29294578678009753  0.20783379356535078  0.7170257072896022  1.0000
  C   C11       1.0  0.34646014964930816  0.08886867316454537  0.7470335682077786  1.0000
  C   C12       1.0  0.43438971897163137  0.10437301662564957  0.7430654777687101  1.0000
  O   O1        1.0  0.5985527867007554  0.3839660291789319  0.6724957187379815  1.0000
  H   H1        1.0  0.7642951941178077  0.17512251575367296  0.7248535470636639  1.0000
  H   H2        1.0  0.617161736075567  0.040954337325809005  0.758698783239923  1.0000
  H   H3        1.0  0.44139022451964893  0.4644191823909352  0.6521437819984122  1.0000
  H   H4        1.0  0.2249089666601709  0.1943314904339478  0.7204782924672564  1.0000
  H   H5        1.0  0.31973996337327765  0.984276875196317  0.7734636069216141  1.0000
  H   H6        1.0  0.4740307547444019  0.010144263346204548  0.7668417720454337  1.0000
  C   C13       1.0  0.010706025276515208  0.1434234933470524  0.6251008033758141  1.0000
  C   C14       1.0  0.9909185364604018  0.22690697768668477  0.513190411388404  1.0000
  C   C15       1.0  0.9639222118923081  0.16248345017372404  0.4061722517254234  1.0000
  C   C16       1.0  0.9565566654992607  0.01158472250109699  0.4106618775327082  1.0000
  C   C17       1.0  0.9772308765403434  0.9268962433001595  0.5201659783743168  1.0000
  C   C18       1.0  0.005729979339120551  0.9903921313438916  0.6276561347977929  1.0000
  O   O2        1.0  0.944648296590344  0.2521283076724128  0.2979449954412374  1.0000
  C   C19       1.0  0.9163670394536402  0.2015191388586064  0.182619991842236  1.0000
  H   H7        1.0  0.017607442841217177  0.22003112137322822  0.9332906456807099  1.0000
  H   H8        1.0  0.9944974045623788  0.3437426275222346  0.5094888869885188  1.0000
  H   H9        1.0  0.9356413823092469  0.9583810556047321  0.32961057789323256  1.0000
  H   H10       1.0  0.9728276373212078  0.8104769391814247  0.519736300946344  1.0000
  H   H11       1.0  0.013928924343995282  0.691370047842561  0.8343764155059055  1.0000
  H   H12       1.0  0.855560028886666  0.1440733736017441  0.19687718746988114  1.0000
  H   H13       1.0  0.9650157997636064  0.12836819569271005  0.14521020027784529  1.0000
  H   H14       1.0  0.9060613701561482  0.29531949545607783  0.11335558032611992  1.0000
  C   C20       1.0  0.008218030456889508  0.566907793396924  0.25863323926373605  1.0000
  C   C21       1.0  0.9480375363126659  0.48737899326149803  0.19679398568496165  1.0000
  C   C22       1.0  0.9480374828634769  0.48737908632150245  0.065911845858593  1.0000
  C   C23       1.0  0.00821796342661395  0.5669078648324286  0.9941236749613962  1.0000
  C   C24       1.0  0.06834878789925525  0.6463707571570472  0.05596200340159485  1.0000
  C   C25       1.0  0.06834877718912954  0.6463707349159198  0.186854301965931  1.0000
  H   H15       1.0  0.9008652239903079  0.4250405609798027  0.24950413993874254  1.0000
  H   H16       1.0  0.9008652058940957  0.42504062906015544  0.021000110867016135  1.0000
  H   H17       1.0  0.11552725989105617  0.7087174046685718  0.0032962274010004374  1.0000
  H   H18       1.0  0.11552721749393113  0.7087173545904665  0.2317205946098495  1.0000
  Zn  Zn1       1.0  0.9153678424378631  0.5679451682315797  0.6261127222049736  1.0000
  Zn  Zn2       1.0  0.1010600714794096  0.5658698543904512  0.6266436108233591  1.0000
  C   C26       1.0  0.008249861311588886  0.5611627515443409  0.8550829112807765  1.0000
  C   C27       1.0  0.008180069668710656  0.5726540680150822  0.3976735559475771  1.0000
  C   C28       1.0  0.006666211705123935  0.8302970790150551  0.6221828085841412  1.0000
  C   C29       1.0  0.00976366609078827  0.30351800861964323  0.6305737200008668  1.0000
  O   O3        1.0  0.07863659982273208  0.5737887079786868  0.4445382068579414  1.0000
  O   O4        1.0  0.07872944276611293  0.5584519084651511  0.8086208287744385  1.0000
  O   O5        1.0  0.07744967572187322  0.775781292182772  0.6205523498481216  1.0000
  O   O6        1.0  0.07991630344218809  0.35645933528552165  0.6326065917380854  1.0000
  O   O7        1.0  0.9365115471074311  0.7773556880462822  0.6201497411024983  1.0000
  O   O8        1.0  0.9377913039684042  0.560028036963159  0.8082181584844128  1.0000
  O   O9        1.0  0.9376984613767079  0.5753647862216464  0.44413403079387376  1.0000
  O   O10       1.0  0.938978165053294  0.3580354032137988  0.6322025095324424  1.0000
