data_image0
_chemical_formula_structural       NC5NC3BrH3C9H8C6ClH5Zn2C4O8
_chemical_formula_sum              "N2 C27 Br1 H16 Cl1 Zn2 O8"
_cell_length_a       13.839083392302014
_cell_length_b       9.275152443626249
_cell_length_c       10.302974078461048
_cell_angle_alpha    85.36323094855369
_cell_angle_beta     90.00087565585007
_cell_angle_gamma    90.59950914120974

_space_group_name_H-M_alt    "P 1"
_space_group_IT_number       1

loop_
  _space_group_symop_operation_xyz
  'x, y, z'

loop_
  _atom_site_type_symbol
  _atom_site_label
  _atom_site_symmetry_multiplicity
  _atom_site_fract_x
  _atom_site_fract_y
  _atom_site_fract_z
  _atom_site_occupancy
  N   N1        1.0  0.9204975650885024  0.5794180311778241  0.5630385212622238  1.0000
  C   C1        1.0  0.8480677303171746  0.5157480415078972  0.5654558387372677  1.0000
  C   C2        1.0  0.7578267360997717  0.43652056051034793  0.5684636754206358  1.0000
  C   C3        1.0  0.6707817938180914  0.5127545993196349  0.5655696583723075  1.0000
  C   C4        1.0  0.5822334533295037  0.43799394119465224  0.5684076885207596  1.0000
  C   C5        1.0  0.49300187518798994  0.516580426423372  0.5654242223982155  1.0000
  N   N2        1.0  0.421271292525166  0.5797577996514356  0.5630255720514724  1.0000
  C   C6        1.0  0.5806621309791709  0.2866876022402733  0.5741516095824993  1.0000
  C   C7        1.0  0.6672612132971889  0.2103322415749491  0.5770501500258796  1.0000
  C   C8        1.0  0.7560007875155289  0.284378456255155  0.5742392598904105  1.0000
  Br  Br1       1.0  0.8726646060218803  0.1742389005629357  0.5784204793607453  1.0000
  H   H1        1.0  0.6719443451902839  0.6300042064046936  0.5611184260700386  1.0000
  H   H2        1.0  0.5125725375903685  0.22780870083904414  0.5763865409492184  1.0000
  H   H3        1.0  0.665337137921981  0.09333195226328404  0.5814915778038353  1.0000
  C   C9        1.0  0.16803855919370458  0.15595367745903155  0.5643575766543584  1.0000
  C   C10       1.0  0.13318061927163538  0.2386694315195581  0.4540631690247701  1.0000
  C   C11       1.0  0.10730472084252973  0.17321053353918825  0.3417035262610693  1.0000
  C   C12       1.0  0.11588046220874082  0.023874412542801426  0.33741360062468084  1.0000
  C   C13       1.0  0.1488488485851729  0.9394692297430942  0.44677591878455575  1.0000
  C   C14       1.0  0.1737394753599666  0.003211063879372541  0.5617177697522453  1.0000
  C   C15       1.0  0.08970102426570949  0.956707145617174  0.22105810815141802  1.0000
  C   C16       1.0  0.06778186251203167  0.900436923180923  0.12362862640069495  1.0000
  C   C17       1.0  0.04118729237045592  0.8321509618127455  0.005415037488248675  1.0000
  H   H4        1.0  0.30688525500827124  0.237699316591665  0.8236357657534356  1.0000
  H   H5        1.0  0.12809053420033178  0.3551834642276628  0.4536549229726188  1.0000
  H   H6        1.0  0.08146972310496214  0.23943277293617224  0.25762096124055067  1.0000
  H   H7        1.0  0.15291722797461094  0.8231619600268915  0.44315409134722833  1.0000
  H   H8        1.0  0.2641231945284206  0.7079729789295444  0.7390554643318168  1.0000
  H   H9        1.0  0.058851991625701316  0.7154411166838286  0.01754331603511461  1.0000
  H   H10       1.0  0.9625403171175126  0.8446801708301842  0.9876437040275161  1.0000
  H   H11       1.0  0.08199417683537047  0.8845271822019475  0.921378159065581  1.0000
  C   C18       1.0  0.1708890221170726  0.5795823734127796  0.18179519624996954  1.0000
  C   C19       1.0  0.1530725967914195  0.42973677328939025  0.19149613284545253  1.0000
  C   C20       1.0  0.1442326220044714  0.35538746788981035  0.0793526818155017  1.0000
  C   C21       1.0  0.1530726405563669  0.42973685479120594  0.9563882336193901  1.0000
  C   C22       1.0  0.17088901915127575  0.5795822989448522  0.9442802155554656  1.0000
  C   C23       1.0  0.17971040223406543  0.6537746958769104  0.0576386384494716  1.0000
  Cl  Cl1       1.0  0.12197567734436054  0.16819471520493212  0.09297499898728658  1.0000
  H   H12       1.0  0.177600719194142  0.636026625024799  0.5054439599465477  1.0000
  H   H13       1.0  0.1459866015327527  0.37013967892940197  0.2858796515813185  1.0000
  H   H14       1.0  0.14598666891715362  0.37013965839028173  0.8706786855698052  1.0000
  H   H15       1.0  0.19345092085164173  0.7693401202288797  0.049228659947935016  1.0000
  H   H16       1.0  0.1776005352386547  0.636026612133915  0.6124163295096903  1.0000
  Zn  Zn1       1.0  0.06501002244526943  0.5795122131903654  0.5630422994157143  1.0000
  Zn  Zn2       1.0  0.2767587477477489  0.5796517933825309  0.5630324851096917  1.0000
  C   C24       1.0  0.17084818091076137  0.5738352864989648  0.8001720992333007  1.0000
  C   C25       1.0  0.17092291381939617  0.5853305418181458  0.32590280693792484  1.0000
  C   C26       1.0  0.17265690101203401  0.8430613515242594  0.5570433198507365  1.0000
  C   C27       1.0  0.16911410980080688  0.3161027435217145  0.5690316609396683  1.0000
  O   O1        1.0  0.2512917835509991  0.5873063559520215  0.3742629326550273  1.0000
  O   O2        1.0  0.25119168682895476  0.5719643222008024  0.7518041543536929  1.0000
  O   O3        1.0  0.25265116792704423  0.7893677738228959  0.5554759402024956  1.0000
  O   O4        1.0  0.24983223026685408  0.36990291460211755  0.5705910494350316  1.0000
  O   O5        1.0  0.09193646766672757  0.789261091924718  0.5554837350868895  1.0000
  O   O6        1.0  0.09047699822651721  0.5718593735276998  0.7518118746154229  1.0000
  O   O7        1.0  0.09057709467460406  0.5872013570075741  0.374269092190293  1.0000
  O   O8        1.0  0.08911754131707748  0.36979790533941953  0.5705973063380058  1.0000
