data_image0
_chemical_formula_structural       NC9NC3OH6C7H8C6OCH7Zn2C4O8
_chemical_formula_sum              "N2 C30 O10 H21 Zn2"
_cell_length_a       15.78231758774541
_cell_length_b       9.274341958901593
_cell_length_c       9.273891588657152
_cell_angle_alpha    86.04057496033718
_cell_angle_beta     89.76748324947235
_cell_angle_gamma    89.0114341261544

_space_group_name_H-M_alt    "P 1"
_space_group_IT_number       1

loop_
  _space_group_symop_operation_xyz
  'x, y, z'

loop_
  _atom_site_type_symbol
  _atom_site_label
  _atom_site_symmetry_multiplicity
  _atom_site_fract_x
  _atom_site_fract_y
  _atom_site_fract_z
  _atom_site_occupancy
  N   N1        1.0  0.7931745359954031  0.5553999761203967  0.411875576247831  1.0000
  C   C1        1.0  0.7451338024777366  0.4644905508740267  0.43865443874934473  1.0000
  C   C2        1.0  0.6854893013673364  0.35164986013413957  0.471893905161314  1.0000
  C   C3        1.0  0.7059182241149298  0.20990296987360477  0.5135598974454583  1.0000
  C   C4        1.0  0.6295587643487836  0.1412076278801446  0.533835609996633  1.0000
  C   C5        1.0  0.5672107828974413  0.24611696465924893  0.5030438225516736  1.0000
  C   C6        1.0  0.47422435228508525  0.22672175467250447  0.5088386014945828  1.0000
  C   C7        1.0  0.41983672319811466  0.34564797751107834  0.4737490879946815  1.0000
  C   C8        1.0  0.33171594010185806  0.32974444233363776  0.47850861520476884  1.0000
  C   C9        1.0  0.2766131494840655  0.4521308023753349  0.44238900169006223  1.0000
  N   N2        1.0  0.232323490663662  0.5505136329109388  0.41335206349204845  1.0000
  C   C10       1.0  0.297302447659359  0.19473769975564711  0.5184121368561438  1.0000
  C   C11       1.0  0.3507577997363582  0.07605739736387673  0.5534339395579804  1.0000
  C   C12       1.0  0.438695279680635  0.09152402412706272  0.5488037525642607  1.0000
  O   O1        1.0  0.6029972079425702  0.3704471853328284  0.4664433855852011  1.0000
  H   H1        1.0  0.7686372548311702  0.16210032192937465  0.5275547285446667  1.0000
  H   H2        1.0  0.621437234988687  0.02825338614141869  0.5670550434091005  1.0000
  H   H3        1.0  0.44587477746958826  0.45070711440755923  0.44269183234616954  1.0000
  H   H4        1.0  0.22925875036157092  0.18126821056168385  0.5224408532911173  1.0000
  H   H5        1.0  0.32398554905845567  0.9717165035109797  0.5842793418223686  1.0000
  H   H6        1.0  0.47828954419564446  0.9975209497461035  0.5765526429264516  1.0000
  C   C13       1.0  0.015446207528146074  0.1293533060529357  0.41286981276863255  1.0000
  C   C14       1.0  0.025903174027145374  0.21139070973695984  0.2809279861830276  1.0000
  C   C15       1.0  0.027925183375969262  0.1452355159282286  0.15035698769684494  1.0000
  C   C16       1.0  0.01860882860016443  0.9956931947278509  0.14858489748089831  1.0000
  C   C17       1.0  0.010795049411913341  0.9120088774398253  0.27946905705804026  1.0000
  C   C18       1.0  0.010059913021831736  0.9765492300024562  0.4123703400739154  1.0000
  C   C19       1.0  0.022657197791376767  0.9243902668837214  0.008276180362944979  1.0000
  H   H7        1.0  0.9438236904718843  0.21132191962107738  0.7465776515818988  1.0000
  H   H8        1.0  0.03071383999676655  0.3279225564238497  0.2784666347319336  1.0000
  H   H9        1.0  0.03586458638801224  0.21112030176562158  0.05031382946649044  1.0000
  H   H10       1.0  0.0072186613520319794  0.7955281247256136  0.27761685990088664  1.0000
  H   H11       1.0  0.9652034862447872  0.6815007658388977  0.6389400340093702  1.0000
  H   H12       1.0  0.08937353964950723  0.8938878553355388  0.9848895243927633  1.0000
  H   H13       1.0  0.998247450607108  0.998667311233636  0.9182426276552841  1.0000
  H   H14       1.0  0.9835438111293037  0.825705493729124  0.013910174316987598  1.0000
  C   C20       1.0  0.014165541259341113  0.5491154421427162  0.9893516473273447  1.0000
  C   C21       1.0  0.08317257924310262  0.6092715876771606  0.05812273762274045  1.0000
  C   C22       1.0  0.1473045936377425  0.6802527387935682  0.9784878708322263  1.0000
  C   C23       1.0  0.14265823093114086  0.6914366320886796  0.8270253102951066  1.0000
  C   C24       1.0  0.07543699898291269  0.6303872394610867  0.7569185225402353  1.0000
  C   C25       1.0  0.011340580611975739  0.5567870572478877  0.8358884484659899  1.0000
  O   O2        1.0  0.21400877748086933  0.7386585746248475  0.05388513555976826  1.0000
  C   C26       1.0  0.28330536113529087  0.8137986099302192  0.9869986113475466  1.0000
  H   H15       1.0  0.8131738048917817  0.46276005712767915  0.0997434685706704  1.0000
  H   H16       1.0  0.19112129307666217  0.745976961153104  0.7622348140490259  1.0000
  H   H17       1.0  0.07470600069336397  0.637829339950875  0.6398306642070027  1.0000
  H   H18       1.0  0.8773457215204769  0.4929148740691647  0.5600324349949153  1.0000
  H   H19       1.0  0.2599386235828476  0.9116675450786781  0.9224690032458627  1.0000
  H   H20       1.0  0.31909255291262717  0.741813947335531  0.9167469451395435  1.0000
  H   H21       1.0  0.3264625326445547  0.8477956791424657  0.07196766437650882  1.0000
  Zn  Zn1       1.0  0.919903431271988  0.553986105243041  0.41230997758855464  1.0000
  Zn  Zn2       1.0  0.10559460242686008  0.5519158372619701  0.4129294517850628  1.0000
  C   C27       1.0  0.011909217890802903  0.5495903851168715  0.6758782668167149  1.0000
  C   C28       1.0  0.013590831506068423  0.5563133561510183  0.1493613097191051  1.0000
  C   C29       1.0  0.011092859101363917  0.8163591758243662  0.4067209614804848  1.0000
  C   C30       1.0  0.014407137694284027  0.2895428337484931  0.4185186927113911  1.0000
  O   O3        1.0  0.08386682538908591  0.5579370927439895  0.20329710506372023  1.0000
  O   O4        1.0  0.08256853461637532  0.5463942710472289  0.6224122237761841  1.0000
  O   O5        1.0  0.08190835961469124  0.7618134674685919  0.40506579133111265  1.0000
  O   O6        1.0  0.08452693732199074  0.34251790636873336  0.42064342921848485  1.0000
  O   O7        1.0  0.9409710330095895  0.7633840368442604  0.4045959999361539  1.0000
  O   O8        1.0  0.941631197245228  0.5479665728259107  0.6219423545061908  1.0000
  O   O9        1.0  0.942929494176827  0.5595093285495456  0.202825502877936  1.0000
  O   O10       1.0  0.9435896058112426  0.34409013283616563  0.42017193510402984  1.0000
