data_image0
_chemical_formula_structural       NC9NC3SH6C12H9C8NH11Zn2C4O8
_chemical_formula_sum              "N3 C36 S1 H26 Zn2 O8"
_cell_length_a       16.77567553997237
_cell_length_b       10.299137764757564
_cell_length_c       9.275652972338538
_cell_angle_alpha    85.91964994455579
_cell_angle_beta     90.8258093540976
_cell_angle_gamma    90.9119803869589

_space_group_name_H-M_alt    "P 1"
_space_group_IT_number       1

loop_
  _space_group_symop_operation_xyz
  'x, y, z'

loop_
  _atom_site_type_symbol
  _atom_site_label
  _atom_site_symmetry_multiplicity
  _atom_site_fract_x
  _atom_site_fract_y
  _atom_site_fract_z
  _atom_site_occupancy
  N   N1        1.0  0.7443516542174038  0.4303300271838071  0.4172989027311198  1.0000
  C   C1        1.0  0.6898079588432403  0.47994644138441145  0.46346015865662665  1.0000
  C   C2        1.0  0.622118417932188  0.5415171280234263  0.5207427453217872  1.0000
  C   C3        1.0  0.6247168701808964  0.630263887676077  0.6262259466596272  1.0000
  C   C4        1.0  0.5492364978821582  0.6739563430954395  0.6611917124947635  1.0000
  C   C5        1.0  0.4868909439130822  0.6194233878853134  0.5828270337083183  1.0000
  C   C6        1.0  0.4004567123394833  0.6455647294460652  0.5948648566199495  1.0000
  C   C7        1.0  0.3433500335464666  0.5655710315237815  0.5301891505180292  1.0000
  C   C8        1.0  0.2617601204561488  0.5896945066345711  0.5410546775508303  1.0000
  C   C9        1.0  0.2039788624453066  0.5070224342414706  0.47483087574401833  1.0000
  N   N2        1.0  0.1575397982172749  0.44056593702386126  0.4215967237552316  1.0000
  C   C10       1.0  0.2364463750219289  0.6941241505043019  0.6164170022059359  1.0000
  C   C11       1.0  0.2924592797069313  0.7742735176574687  0.6805803210780774  1.0000
  C   C12       1.0  0.3738929946744737  0.7505153388012794  0.6700416905458055  1.0000
  S   S1        1.0  0.5269806395751214  0.5166355765217533  0.4706252308854826  1.0000
  H   H1        1.0  0.6793407654376392  0.6624405674874336  0.6770187002408241  1.0000
  H   H2        1.0  0.5413298580215228  0.7423653094702105  0.7427380373398447  1.0000
  H   H3        1.0  0.36188421487425293  0.4839067268038149  0.47199366980899504  1.0000
  H   H4        1.0  0.1735042874770144  0.713640196578253  0.625389583725406  1.0000
  H   H5        1.0  0.2727428288630916  0.8553240641213087  0.7384235664150303  1.0000
  H   H6        1.0  0.4155567932680993  0.8154680434609094  0.7197061191416219  1.0000
  C   C13       1.0  0.9508734636736003  0.05404724400634908  0.41960420900405104  1.0000
  C   C14       1.0  0.9502015185439373  0.06297563263012607  0.2678269030508289  1.0000
  C   C15       1.0  0.9499389717773951  0.9503719554125903  0.19071514154723168  1.0000
  C   C16       1.0  0.9503574045273544  0.8277219330511645  0.2674321656002976  1.0000
  C   C17       1.0  0.9510256611721765  0.8168390128195488  0.41930401813572105  1.0000
  C   C18       1.0  0.9512809133047484  0.9305135191143553  0.49445506694196834  1.0000
  C   C19       1.0  0.9492271760131646  0.9608621986260987  0.03014973742347649  1.0000
  C   C20       1.0  0.996986476459825  0.879266771248239  0.9531068238039233  1.0000
  C   C21       1.0  0.9962173800500868  0.8893890949108388  0.8019667875820393  1.0000
  C   C22       1.0  0.9478818245286625  0.9807285252995762  0.7261631469859622  1.0000
  C   C23       1.0  0.9002145566605703  0.0622007618852276  0.8013456436433009  1.0000
  C   C24       1.0  0.9007831889388042  0.052568374773152  0.9524845686655259  1.0000
  H   H7        1.0  0.9509840524037532  0.15777106559633494  0.20923378169824036  1.0000
  H   H8        1.0  0.9490592647551578  0.7405686249660517  0.20854384769455914  1.0000
  H   H9        1.0  0.9517970173586163  0.9229112645165135  0.6115243631173761  1.0000
  H   H10       1.0  0.9517800008201067  0.588993946691508  0.7059489002001144  1.0000
  H   H11       1.0  0.03564993549652318  0.8088964493573014  0.00969135037448732  1.0000
  H   H12       1.0  0.03329866234956369  0.8265472947368516  0.7435820782622677  1.0000
  H   H13       1.0  0.9473641433507215  0.9883743694573995  0.6091712202533492  1.0000
  H   H14       1.0  0.8626144456654377  0.13270545938861902  0.7424762698127828  1.0000
  H   H15       1.0  0.8626186144978256  0.1155770887852774  0.008563469110552276  1.0000
  C   C25       1.0  0.9491741497136901  0.4328678060376097  0.9961659026513194  1.0000
  C   C26       1.0  0.8974774278033725  0.5165443579819096  0.06174168311084194  1.0000
  C   C27       1.0  0.8520774325492809  0.6079557242490155  0.9785327885679808  1.0000
  C   C28       1.0  0.8572969562748436  0.614412607138203  0.8277992007837791  1.0000
  C   C29       1.0  0.9072382425640838  0.5307503817173551  0.7607970605447916  1.0000
  C   C30       1.0  0.9527250062961773  0.43801846239928466  0.8427422985454416  1.0000
  C   C31       1.0  0.796137014659378  0.6954249495555567  0.0504594832034948  1.0000
  C   C32       1.0  0.7141476786841882  0.6299353459167643  0.07041911870145157  1.0000
  N   N3        1.0  0.6600903802825278  0.7163674532189168  0.1380299954016626  1.0000
  H   H16       1.0  0.0075745372018707355  0.24134806404092357  0.2934569525181818  1.0000
  H   H17       1.0  0.8936842778454835  0.5128369057264942  0.17853118818616687  1.0000
  H   H18       1.0  0.8219579864784947  0.6834942708954808  0.7618207370273709  1.0000
  H   H19       1.0  0.9086787990873727  0.5363640956627853  0.6437899642888305  1.0000
  H   H20       1.0  0.06203877467640196  0.3217701859266444  0.5734462762933497  1.0000
  H   H21       1.0  0.8211100791274745  0.7188648242429213  0.15742451887265974  1.0000
  H   H22       1.0  0.7897728620176345  0.7890356765834514  0.9840466889732338  1.0000
  H   H23       1.0  0.6892167842608803  0.6075400565270296  0.9630369544460358  1.0000
  H   H24       1.0  0.7197572016373712  0.5370531498738398  0.13870694343351686  1.0000
  H   H25       1.0  0.6037688914796122  0.6713574138998062  0.14186423896346612  1.0000
  H   H26       1.0  0.6787612857891002  0.723330676917483  0.24534156128739507  1.0000
  Zn  Zn1       1.0  0.8635888643531813  0.43328047271542475  0.4185474951970001  1.0000
  Zn  Zn2       1.0  0.03830263065242545  0.4376049682724364  0.4203599728615979  1.0000
  C   C33       1.0  0.9520509864008846  0.43187071388057596  0.6827232569426973  1.0000
  C   C34       1.0  0.9498424173940129  0.4390164139483175  0.15618437174044497  1.0000
  C   C35       1.0  0.9509687019983264  0.672620084199205  0.4136166880104146  1.0000
  C   C36       1.0  0.9509246421899437  0.19826548218825035  0.42529101751758547  1.0000
  O   O1        1.0  0.016369656783733925  0.4427154002417056  0.2105758598114551  1.0000
  O   O2        1.0  0.01812745109502134  0.4314529373238099  0.6297069829284325  1.0000
  O   O3        1.0  0.017252605243467157  0.6258610855432194  0.4124015147381397  1.0000
  O   O4        1.0  0.017244442565852672  0.24830725918008414  0.42788121930172407  1.0000
  O   O5        1.0  0.8846469928184886  0.6225781803334068  0.4110262481307818  1.0000
  O   O6        1.0  0.8855218386554049  0.42817159208106537  0.6283316388501248  1.0000
  O   O7        1.0  0.8837640371192039  0.4394339991966263  0.20919878272486891  1.0000
  O   O8        1.0  0.8846388233494924  0.24502584950284637  0.42650425028906996  1.0000
