data_image0
_chemical_formula_structural       NC9NC3OH6C7F3H5C6NCH7Zn2C4O8
_chemical_formula_sum              "N3 C30 O9 H18 F3 Zn2"
_cell_length_a       15.78231758774541
_cell_length_b       9.27228830945605
_cell_length_c       9.273390368590327
_cell_angle_alpha    85.86907617874284
_cell_angle_beta     90.0787864382203
_cell_angle_gamma    89.05832516092083

_space_group_name_H-M_alt    "P 1"
_space_group_IT_number       1

loop_
  _space_group_symop_operation_xyz
  'x, y, z'

loop_
  _atom_site_type_symbol
  _atom_site_label
  _atom_site_symmetry_multiplicity
  _atom_site_fract_x
  _atom_site_fract_y
  _atom_site_fract_z
  _atom_site_occupancy
  N   N1        1.0  0.7888657936931281  0.5537400332674609  0.40473535592981347  1.0000
  C   C1        1.0  0.740867048752672  0.46282413713120674  0.4319359962459617  1.0000
  C   C2        1.0  0.6812746669100678  0.34997541505530205  0.46569899140564236  1.0000
  C   C3        1.0  0.7017687794394587  0.20821829760987853  0.5080226298207511  1.0000
  C   C4        1.0  0.6254411764540022  0.13951812917897935  0.5286170543635567  1.0000
  C   C5        1.0  0.5630450928751277  0.24443510726004214  0.49733852849386784  1.0000
  C   C6        1.0  0.47006787966271735  0.22503864460231715  0.5032232867709294  1.0000
  C   C7        1.0  0.4156251380122543  0.3439732419113844  0.4675820143307474  1.0000
  C   C8        1.0  0.3275119382493638  0.32806869206582645  0.4724153215666875  1.0000
  C   C9        1.0  0.2723524024190488  0.4504636558514348  0.4357278964021156  1.0000
  N   N2        1.0  0.22801712322224346  0.5488534004409547  0.40623451105187836  1.0000
  C   C10       1.0  0.2931612309062083  0.19305255142969657  0.5129452031528359  1.0000
  C   C11       1.0  0.3466715969891254  0.07436389948250044  0.5485176235189033  1.0000
  C   C12       1.0  0.43460169743495747  0.08983151082038332  0.5438156835096879  1.0000
  O   O1        1.0  0.5987741664918225  0.3687742138494461  0.4601612550783451  1.0000
  H   H1        1.0  0.7645096149245796  0.1604121119831945  0.5222392489728584  1.0000
  H   H2        1.0  0.6173716488751608  0.02655576421582361  0.5623605469507276  1.0000
  H   H3        1.0  0.44161431767048165  0.44903968392654653  0.43603734016453094  1.0000
  H   H4        1.0  0.22512394880228812  0.1795821991616611  0.5170364076937877  1.0000
  H   H5        1.0  0.31994788828808046  0.9700157511914795  0.5798471120035287  1.0000
  H   H6        1.0  0.47423956604958856  0.9958218373957246  0.5720007008348622  1.0000
  C   C13       1.0  0.01093864034989588  0.12746793676216472  0.4077146396931385  1.0000
  C   C14       1.0  0.05121751905510119  0.20781895674512743  0.29401779371751674  1.0000
  C   C15       1.0  0.08312889377534916  0.14058372587328538  0.17526750719411033  1.0000
  C   C16       1.0  0.07445184426044182  0.991377625828341  0.1660254995368471  1.0000
  C   C17       1.0  0.03726371265435219  0.9093292690028582  0.2815674072890195  1.0000
  C   C18       1.0  0.00595244633298986  0.9751144725416953  0.4032677815551703  1.0000
  C   C19       1.0  0.11109807101226571  0.9180824530101285  0.039556310490979296  1.0000
  F   F1        1.0  0.11038341727921791  0.011377543197351297  0.9160919166072031  1.0000
  F   F2        1.0  0.06444073532678923  0.7979563974920768  0.011923969629451298  1.0000
  F   F3        1.0  0.19372432170851245  0.8749375950985202  0.07104871443118886  1.0000
  H   H7        1.0  0.8684355956869122  0.21438685881824204  0.6664643198140696  1.0000
  H   H8        1.0  0.056562267952428  0.3240396104383101  0.2955273463637009  1.0000
  H   H9        1.0  0.11401746128558687  0.20580789007001754  0.08984990495726786  1.0000
  H   H10       1.0  0.034556602579089546  0.792886118238457  0.27831742694567735  1.0000
  H   H11       1.0  0.9664345807790133  0.8495783543700767  0.7521701204155057  1.0000
  C   C20       1.0  0.008511283065175889  0.546790050600608  0.9822691719666103  1.0000
  C   C21       1.0  0.08635566842262808  0.5430563363334986  0.056152385373814166  1.0000
  C   C22       1.0  0.1627636438452421  0.5527544307581975  0.980943304387722  1.0000
  C   C23       1.0  0.16326785676331224  0.5665556179687743  0.8292448768662801  1.0000
  C   C24       1.0  0.08595428216492057  0.5678495836899637  0.7545665938077053  1.0000
  C   C25       1.0  0.008379802133091419  0.5557923665911033  0.8287132153829098  1.0000
  N   N3        1.0  0.2410982610729996  0.5778995670158735  0.7486584839350465  1.0000
  C   C26       1.0  0.324762384327848  0.5771386966946899  0.8159314006013889  1.0000
  H   H12       1.0  0.8751706274956452  0.4789500399429952  0.2680162917043942  1.0000
  H   H13       1.0  0.2211554170063944  0.5507767071276732  0.04227058390175808  1.0000
  H   H14       1.0  0.8115601831738563  0.4458625971850163  0.7331362250953561  1.0000
  H   H15       1.0  0.23829256361553364  0.5874953603485364  0.6357230840999384  1.0000
  H   H16       1.0  0.3297172124536274  0.6696617907380913  0.8849329967810817  1.0000
  H   H17       1.0  0.3357054978562668  0.4738561045893901  0.8820618585042616  1.0000
  H   H18       1.0  0.3743573115315919  0.5874970631295691  0.7311531167165595  1.0000
  Zn  Zn1       1.0  0.9155953989452711  0.5523260898362043  0.4051763157721393  1.0000
  Zn  Zn2       1.0  0.10128755693954522  0.5502556896048338  0.40580539440789687  1.0000
  C   C27       1.0  0.008436569056362364  0.5483410427397821  0.6687473313191703  1.0000
  C   C28       1.0  0.008448403846846855  0.5542425366530644  0.1422345176320314  1.0000
  C   C29       1.0  0.006891456269096476  0.8148301865711222  0.3983651797802447  1.0000
  C   C30       1.0  0.009993463458658248  0.2877516603257886  0.4126167548904103  1.0000
  O   O2        1.0  0.07889654426168868  0.5559516564142961  0.1961591140352279  1.0000
  O   O3        1.0  0.07892448640435207  0.5450594438960097  0.6152997818830852  1.0000
  O   O4        1.0  0.07767583809659584  0.7602528242847207  0.3969642704256621  1.0000
  O   O5        1.0  0.08014512916134502  0.340758285907351  0.41449451716282976  1.0000
  O   O6        1.0  0.936737763355843  0.7618234942417034  0.3964871927949438  1.0000
  O   O7        1.0  0.9379864014714262  0.546631847056944  0.6148226183106503  1.0000
  O   O8        1.0  0.9379584599501698  0.5575239908514549  0.19568021797113277  1.0000
  O   O9        1.0  0.9392070448902983  0.34233061117076025  0.41401572920629326  1.0000
