data_image0
_chemical_formula_structural       NC9NC3OH6C6NH7C6OCH6Zn2C4O8
_chemical_formula_sum              "N3 C29 O10 H19 Zn2"
_cell_length_a       15.78231758774541
_cell_length_b       9.274771166103584
_cell_length_c       9.273891588657152
_cell_angle_alpha    85.97469330815719
_cell_angle_beta     89.76748324947235
_cell_angle_gamma    90.23039320205511

_space_group_name_H-M_alt    "P 1"
_space_group_IT_number       1

loop_
  _space_group_symop_operation_xyz
  'x, y, z'

loop_
  _atom_site_type_symbol
  _atom_site_label
  _atom_site_symmetry_multiplicity
  _atom_site_fract_x
  _atom_site_fract_y
  _atom_site_fract_z
  _atom_site_occupancy
  N   N1        1.0  0.8126236817886793  0.5552421756986881  0.4099630556437137  1.0000
  C   C1        1.0  0.7634461920071922  0.4643419735112495  0.4368537004208872  1.0000
  C   C2        1.0  0.7023907001038722  0.35151273082900525  0.47023191580375534  1.0000
  C   C3        1.0  0.7210471810508058  0.20978022125472642  0.5120722001364759  1.0000
  C   C4        1.0  0.6438287359803896  0.1410918486286976  0.5324323805152102  1.0000
  C   C5        1.0  0.5827925695074573  0.24599054201199388  0.5015115964962278  1.0000
  C   C6        1.0  0.48956361589618436  0.22659729973282472  0.507330223799231  1.0000
  C   C7        1.0  0.436663072756329  0.34551145711659315  0.4720944785550581  1.0000
  C   C8        1.0  0.34834342751590125  0.329609535404882  0.47687356076011317  1.0000
  C   C9        1.0  0.294770989345134  0.45198347894952223  0.44060346091466407  1.0000
  N   N2        1.0  0.2517115362878907  0.5503563282247521  0.41144555113803394  1.0000
  C   C10       1.0  0.3122417739188523  0.19461648970309045  0.5169430867710347  1.0000
  C   C11       1.0  0.36421311510511856  0.07594822781669051  0.5521108188332362  1.0000
  C   C12       1.0  0.4523439939715158  0.0914132854399361  0.547461614067358  1.0000
  O   O1        1.0  0.6201336535634613  0.37030814897748887  0.464758283026989  1.0000
  H   H1        1.0  0.7831684744110959  0.16198242304568966  0.5261258093959826  1.0000
  H   H2        1.0  0.6342947959546934  0.028149066467734855  0.5657907025209423  1.0000
  H   H3        1.0  0.4640148151477621  0.4505599354195542  0.4409080421382226  1.0000
  H   H4        1.0  0.2440296504521579  0.18114836703292014  0.5209883652967927  1.0000
  H   H5        1.0  0.336136157414293  0.9716179196892042  0.583084518713935  1.0000
  H   H6        1.0  0.4907628183896241  0.9974197479787448  0.5753260906577635  1.0000
  C   C13       1.0  0.02956794948440343  0.12923872946126228  0.4114811593673757  1.0000
  C   C14       1.0  0.010487085007233828  0.21159642855838706  0.2825207291812556  1.0000
  C   C15       1.0  0.9993193710531675  0.14550055814871943  0.15276922656217407  1.0000
  C   C16       1.0  0.007279968293138374  0.9956605078359826  0.15103878516807345  1.0000
  C   C17       1.0  0.024799819727212343  0.9119847690806472  0.2782232906738171  1.0000
  C   C18       1.0  0.03477525682928118  0.9763487565325649  0.4099399708108724  1.0000
  N   N3        1.0  0.9807636229860186  0.2309391260426974  0.022393927488147728  1.0000
  H   H7        1.0  0.12390255800942479  0.21069648622444095  0.7272478447915682  1.0000
  H   H8        1.0  0.006216897202075522  0.328231654678361  0.2819526405035542  1.0000
  H   H9        1.0  0.99908854190986  0.943363658703119  0.051209448455070916  1.0000
  H   H10       1.0  0.028546991570803638  0.7957418001661181  0.27410792324202005  1.0000
  H   H11       1.0  0.09487247594881376  0.6805507808518049  0.6247593319747117  1.0000
  H   H12       1.0  0.974926280091235  0.3430775580734411  0.022327403628984666  1.0000
  H   H13       1.0  0.9726443168050396  0.18268007660160923  0.9249352429252609  1.0000
  C   C19       1.0  0.03353610352461664  0.5489582793075624  0.9874468541894115  1.0000
  C   C20       1.0  0.10329535036965048  0.6091083218040239  0.05614397645756997  1.0000
  C   C21       1.0  0.1683149324496659  0.6800822716501781  0.9764218312074324  1.0000
  C   C22       1.0  0.1638084161970773  0.6912650303026855  0.8249455189494115  1.0000
  C   C23       1.0  0.09582380598214324  0.6302218313359191  0.7549137975588596  1.0000
  C   C24       1.0  0.03080707084622423  0.5566291161022556  0.8339742223062104  1.0000
  O   O2        1.0  0.23574943880385135  0.7384821820181253  0.05174728008944118  1.0000
  C   C25       1.0  0.3059855939665683  0.8136145941208229  0.9847683636514759  1.0000
  H   H14       1.0  0.8314645558551559  0.46261165532915965  0.09794485805820674  1.0000
  H   H15       1.0  0.21295346550209038  0.7457998260721002  0.7600879598868895  1.0000
  H   H16       1.0  0.8960135365445876  0.49276341296570614  0.5581967461041559  1.0000
  H   H17       1.0  0.2838426362891142  0.911473600145277  0.920118415857206  1.0000
  H   H18       1.0  0.3408726698771314  0.7416372346059131  0.9146052098213217  1.0000
  H   H19       1.0  0.3495678741075696  0.8476082142190526  0.06969561386679102  1.0000
  Zn  Zn1       1.0  0.9393348976379464  0.5538284482631635  0.4103991954807893  1.0000
  Zn  Zn2       1.0  0.12500018159697668  0.5517583903175599  0.41102121527986324  1.0000
  C   C26       1.0  0.03128571897264676  0.5494331740971972  0.6739728896886588  1.0000
  C   C27       1.0  0.033051398452521585  0.5561554630639143  0.147447666022436  1.0000
  C   C28       1.0  0.03380510994739813  0.8161749002371734  0.4044875653112845  1.0000
  C   C29       1.0  0.03053193322295966  0.28941200540459366  0.4169330701851599  1.0000
  O   O3        1.0  0.10334769598104021  0.5577790349234901  0.2013814648197083  1.0000
  O   O4        1.0  0.1019050706156246  0.546237384283795  0.6205107765916187  1.0000
  O   O5        1.0  0.10393855603710728  0.7616347257221558  0.4028994645927326  1.0000
  O   O6        1.0  0.10131414761639762  0.34238170353021674  0.41899266851593464  1.0000
  O   O7        1.0  0.9630208682601107  0.7632051357584173  0.4024277420248687  1.0000
  O   O8        1.0  0.9609873937350233  0.5478095265473115  0.6200389740185566  1.0000
  O   O9        1.0  0.9624300244343809  0.5593511112205745  0.20090792941197577  1.0000
  O   O10       1.0  0.9603964756544827  0.34395377049012454  0.41851924119101347  1.0000
