data_image0
_chemical_formula_structural       NC5OC5NC4H8C6NCH9C7OH5Zn2C4O8
_chemical_formula_sum              "N3 C32 O10 H22 Zn2"
_cell_length_a       19.189071930511275
_cell_length_b       9.273386996610926
_cell_length_c       9.274074313596557
_cell_angle_alpha    86.02935137670892
_cell_angle_beta     90.21172444201244
_cell_angle_gamma    89.38971707573329

_space_group_name_H-M_alt    "P 1"
_space_group_IT_number       1

loop_
  _space_group_symop_operation_xyz
  'x, y, z'

loop_
  _atom_site_type_symbol
  _atom_site_label
  _atom_site_symmetry_multiplicity
  _atom_site_fract_x
  _atom_site_fract_y
  _atom_site_fract_z
  _atom_site_occupancy
  N   N1        1.0  0.6451480599578823  0.5630692288009602  0.40713774893136745  1.0000
  C   C1        1.0  0.5903920975684314  0.6141007595831046  0.3867540367168172  1.0000
  C   C2        1.0  0.5222827519125764  0.6775754767703788  0.36139976324214684  1.0000
  C   C3        1.0  0.5118242598387305  0.7841396068282938  0.24867182816942446  1.0000
  C   C4        1.0  0.44566325023374  0.8458796853676342  0.22418266084351757  1.0000
  C   C5        1.0  0.3892996522562338  0.8009258544387523  0.3109175484360398  1.0000
  O   O1        1.0  0.3239423571000518  0.8666754478575761  0.2839082052227111  1.0000
  C   C6        1.0  0.259358481532438  0.8007091408850346  0.3102917446777165  1.0000
  C   C7        1.0  0.20222298249825527  0.8872295066803256  0.34373193678214276  1.0000
  C   C8        1.0  0.13678509750011744  0.8258158151889445  0.369164638110967  1.0000
  C   C9        1.0  0.1278255844217099  0.6770673470486424  0.3599310708098904  1.0000
  C   C10       1.0  0.06046017999524251  0.6138207928071409  0.38594472437659233  1.0000
  N   N2        1.0  0.0063023727850344  0.5629727653622956  0.4068590324479937  1.0000
  C   C11       1.0  0.18448549491957253  0.5901836402958835  0.3243635490342258  1.0000
  C   C12       1.0  0.24991439058762852  0.6516416204221842  0.2989792017371451  1.0000
  C   C13       1.0  0.4002386714462215  0.6953820578354157  0.42543989485943356  1.0000
  C   C14       1.0  0.4663909219110432  0.6336380884385375  0.4499971862253911  1.0000
  H   H1        1.0  0.5547575114239786  0.8195820149561157  0.17992646104223287  1.0000
  H   H2        1.0  0.43803782182697665  0.9283818366943184  0.1369613694423164  1.0000
  H   H3        1.0  0.20868805037503496  0.002358661083281531  0.3508409859083288  1.0000
  H   H4        1.0  0.09324185557841463  0.894249459634503  0.39580273797890597  1.0000
  H   H5        1.0  0.1780096869118707  0.47520746394267  0.31550646942529537  1.0000
  H   H6        1.0  0.2927400727874498  0.5834026266655958  0.26855221122826545  1.0000
  H   H7        1.0  0.358007327048764  0.6623851068802267  0.4969038513830401  1.0000
  H   H8        1.0  0.4740193170039286  0.5523118317305167  0.5384278769916473  1.0000
  C   C15       1.0  0.8278728900166572  0.1393734075101285  0.40770495704221776  1.0000
  C   C16       1.0  0.839858648297331  0.22156646145783984  0.27738081541446613  1.0000
  C   C17       1.0  0.8452829009657835  0.1557826996147731  0.14705368233071758  1.0000
  C   C18       1.0  0.8388008344601305  0.005450974727479792  0.14371857456152215  1.0000
  C   C19       1.0  0.8280422880383791  0.922290234580392  0.27358908431487805  1.0000
  C   C20       1.0  0.8235842981175182  0.9866576259269374  0.40630431273272616  1.0000
  N   N3        1.0  0.843630806411003  0.9346045319165889  0.010701253989577223  1.0000
  C   C21       1.0  0.8549696447716645  0.011117245353965188  0.8700478407741965  1.0000
  H   H9        1.0  0.8425649860779046  0.40383718944393077  0.6443142713935612  1.0000
  H   H10       1.0  0.8434096652845542  0.3381940475451062  0.2756098598647678  1.0000
  H   H11       1.0  0.8538830548000396  0.22342141429470821  0.0491480375555422  1.0000
  H   H12       1.0  0.8247486172888355  0.8058677232150797  0.27131797691902615  1.0000
  H   H13       1.0  0.8499174599856518  0.8587348813797313  0.7573197995440968  1.0000
  H   H14       1.0  0.8387097293718369  0.8222680639987361  0.01369372092731092  1.0000
  H   H15       1.0  0.8117201916549261  0.08945651422305813  0.8450397905786122  1.0000
  H   H16       1.0  0.9054101139969055  0.06865780962655976  0.8702414818997966  1.0000
  H   H17       1.0  0.8565624251280026  0.9328425743611407  0.7847228960920551  1.0000
  C   C22       1.0  0.8249152307164863  0.5588606925054831  0.9837709562322292  1.0000
  C   C23       1.0  0.7639381847306831  0.6014683972070194  0.05363629387494795  1.0000
  C   C24       1.0  0.7063340993851206  0.6556692614415238  0.9744087318497008  1.0000
  C   C25       1.0  0.7083587143766932  0.6687040412218459  0.8231055675491072  1.0000
  C   C26       1.0  0.7684036532653568  0.6243548665051836  0.7521039494518327  1.0000
  C   C27       1.0  0.82654194829488  0.5671703141782116  0.8302383366160435  1.0000
  C   C28       1.0  0.6481198350231656  0.7268728966159657  0.7376649895349683  1.0000
  O   O2        1.0  0.5933071363189103  0.7670834972857027  0.7983469633819236  1.0000
  H   H18       1.0  0.995374181749925  0.5220597867491191  0.09048887540934603  1.0000
  H   H19       1.0  0.6604427026155228  0.6887071519318675  0.031791077699415915  1.0000
  H   H20       1.0  0.7691757767096613  0.6313459731952347  0.6349351056619135  1.0000
  H   H21       1.0  0.9411490016383907  0.5371551587529295  0.5527337465477093  1.0000
  H   H22       1.0  0.6505500969879761  0.7356290060532888  0.6207790862394256  1.0000
  Zn  Zn1       1.0  0.7493694375200263  0.5630376245594895  0.407065640438254  1.0000
  Zn  Zn2       1.0  0.9020810947602009  0.5629927276577069  0.40694294438312717  1.0000
  C   C29       1.0  0.8262620171471713  0.5598524186848128  0.6702473365772528  1.0000
  C   C30       1.0  0.8251901737980206  0.5661797547085632  0.14376138535420435  1.0000
  C   C31       1.0  0.8243803204998967  0.8264465069617959  0.40082576801121594  1.0000
  C   C32       1.0  0.8270718272562382  0.2995839339227222  0.41318303366674325  1.0000
  O   O3        1.0  0.8832357571236474  0.5686127668557992  0.1974090827892372  1.0000
  O   O4        1.0  0.8841210528709613  0.5573842384200658  0.6165061025895728  1.0000
  O   O5        1.0  0.8826007806731221  0.7726623511875776  0.39894627791810344  1.0000
  O   O6        1.0  0.8847559769514293  0.35333466336289804  0.41496879942154785  1.0000
  O   O7        1.0  0.7666945032157815  0.7726956888711162  0.3990397854341199  1.0000
  O   O8        1.0  0.7682147664896609  0.5574193086292796  0.6165995303933733  1.0000
  O   O9        1.0  0.7673294677130539  0.5686477697812173  0.19750077787275622  1.0000
  O   O10       1.0  0.7688496877978768  0.3533696570305229  0.4150606025785124  1.0000
