data_image0
_chemical_formula_structural       NC5NC3BrH3C9H8C7ONH5Zn2C4O8
_chemical_formula_sum              "N3 C28 Br1 H16 O9 Zn2"
_cell_length_a       13.839083392302014
_cell_length_b       9.275152443626249
_cell_length_c       9.273042158839658
_cell_angle_alpha    85.96394158152518
_cell_angle_beta     90.09396774382412
_cell_angle_gamma    90.59950914120974

_space_group_name_H-M_alt    "P 1"
_space_group_IT_number       1

loop_
  _space_group_symop_operation_xyz
  'x, y, z'

loop_
  _atom_site_type_symbol
  _atom_site_label
  _atom_site_symmetry_multiplicity
  _atom_site_fract_x
  _atom_site_fract_y
  _atom_site_fract_z
  _atom_site_occupancy
  N   N1        1.0  0.9186429474917618  0.5626126441248747  0.4047077775512673  1.0000
  C   C1        1.0  0.8462162326367245  0.49897092518899294  0.4073914457109138  1.0000
  C   C2        1.0  0.7559791204905695  0.419778621097995  0.41073069908574156  1.0000
  C   C3        1.0  0.6689304430392119  0.49597881413107014  0.40751780649457237  1.0000
  C   C4        1.0  0.5803857654606821  0.42125134701072997  0.410668543302686  1.0000
  C   C5        1.0  0.49115033670184  0.4998029403486857  0.40735634574439517  1.0000
  N   N2        1.0  0.4194166582154971  0.5629522611563622  0.4046934015394503  1.0000
  C   C6        1.0  0.5788218565151153  0.27001218370307045  0.41704535488165906  1.0000
  C   C7        1.0  0.6654246798409411  0.19369072171544913  0.42026326927546687  1.0000
  C   C8        1.0  0.7541606261775423  0.2677040627957785  0.4171426628864834  1.0000
  Br  Br1       1.0  0.8708298411843013  0.15761340682188285  0.421784587531002  1.0000
  H   H1        1.0  0.6700872494183219  0.6131763636747056  0.40257611781523583  1.0000
  H   H2        1.0  0.5107351476455585  0.21115942001479326  0.41952654082838725  1.0000
  H   H3        1.0  0.663506336804584  0.0767423752804588  0.4251940731248254  1.0000
  C   C9        1.0  0.16618564403880254  0.1391637168713962  0.4061721722752647  1.0000
  C   C10       1.0  0.13118535238898077  0.22058956842763378  0.2837250411067749  1.0000
  C   C11       1.0  0.10516443673170572  0.1538166148419362  0.15898511810236715  1.0000
  C   C12       1.0  0.11373464129564904  0.004430322799341857  0.154222509567707  1.0000
  C   C13       1.0  0.1468441763964421  0.9213041416380775  0.27563484954404527  1.0000
  C   C14       1.0  0.17188315313228975  0.9863902305248666  0.4032414998236926  1.0000
  C   C15       1.0  0.08740502887194346  0.9359022684652258  0.02504645653611348  1.0000
  C   C16       1.0  0.06536011953632247  0.8784925999300945  0.9168817654334217  1.0000
  C   C17       1.0  0.03861297675768239  0.8088241205570943  0.7856428827144284  1.0000
  H   H4        1.0  0.3053669778371071  0.22394163653950017  0.6940187740392008  1.0000
  H   H5        1.0  0.1260947404139825  0.3370988266633388  0.2832718127067937  1.0000
  H   H6        1.0  0.07922091764059204  0.21905550146956387  0.06563796579136794  1.0000
  H   H7        1.0  0.15090788126607046  0.8049545143410876  0.2716139532101396  1.0000
  H   H8        1.0  0.2624957535990935  0.6932261250383607  0.6001190425385348  1.0000
  H   H9        1.0  0.05629332940318531  0.6922561166802093  0.7991075084011956  1.0000
  H   H10       1.0  0.9599430648928389  0.8211454923139844  0.7659134254729221  1.0000
  H   H11       1.0  0.07931139883456284  0.8602175224855988  0.6923464509518231  1.0000
  C   C18       1.0  0.1685423519568707  0.5583183131573919  0.981457384098285  1.0000
  C   C19       1.0  0.079853211653518  0.5674441804870496  0.05410896035408586  1.0000
  C   C20       1.0  0.9930028440628532  0.5905246436088218  0.9777752513237559  1.0000
  C   C21       1.0  0.9953656098174913  0.6027371960434293  0.8262342465066861  1.0000
  C   C22       1.0  0.08245863108835971  0.5914922856678773  0.7525806112125237  1.0000
  C   C23       1.0  0.16952646653777934  0.567235562438406  0.8279563528431129  1.0000
  C   C24       1.0  0.9007332944001711  0.6004206324477541  0.05760347099143859  1.0000
  O   O1        1.0  0.8939023975690952  0.5445921379090048  0.1851673789053092  1.0000
  N   N3        1.0  0.8190324442871885  0.6735496380134229  0.9938162119187853  1.0000
  H   H12       1.0  0.4033525539968117  0.6135787411993032  0.08122011802121842  1.0000
  H   H13       1.0  0.9297515312124757  0.6169556580034494  0.7635636602362168  1.0000
  H   H14       1.0  0.32775094692326334  0.5977631328460051  0.5449248119784298  1.0000
  H   H15       1.0  0.8241048561382418  0.7358462988055023  0.8959347709689522  1.0000
  H   H16       1.0  0.7537207247106665  0.6733429800648936  0.05006110724864388  1.0000
  Zn  Zn1       1.0  0.06315540972481168  0.5627068703232436  0.40471197199834696  1.0000
  Zn  Zn2       1.0  0.27490412236043427  0.562846335736263  0.40470107630886765  1.0000
  C   C25       1.0  0.1692996203051027  0.5598031968656196  0.6679697774143356  1.0000
  C   C26       1.0  0.16876223647428423  0.5657518323607589  0.1414434059421703  1.0000
  C   C27       1.0  0.17079454569497288  0.826185850079469  0.3980519984470421  1.0000
  C   C28       1.0  0.16726722726340482  0.2993674467484506  0.4113612677505134  1.0000
  O   O2        1.0  0.24919352231199943  0.5682932222895538  0.19513206327549337  1.0000
  O   O3        1.0  0.24958070002536425  0.5573665653267661  0.6142724393687495  1.0000
  O   O4        1.0  0.2507867896678795  0.7724739417394364  0.39631191800684884  1.0000
  O   O5        1.0  0.24798736035775648  0.35318585501030797  0.41309247653741465  1.0000
  O   O6        1.0  0.09007209946804796  0.7723673510030962  0.3963205717659317  1.0000
  O   O7        1.0  0.08886602138710022  0.557261706942783  0.614281010282915  1.0000
  O   O8        1.0  0.08847884138542228  0.5681882953813964  0.1951389014954794  1.0000
  O   O9        1.0  0.08727267948346551  0.3530809189226243  0.4130994228535121  1.0000
