data_image0
_chemical_formula_structural       NC8ONC5NC3OH9C7ClCClC6H10C7SCNC6H11Zn2C4O8
_chemical_formula_sum              "N4 C48 O10 H30 Cl2 S1 Zn2"
_cell_length_a       21.006696871193384
_cell_length_b       17.25489619101054
_cell_length_c       14.87834033886434
_cell_angle_alpha    84.78858293780257
_cell_angle_beta     89.74748250328348
_cell_angle_gamma    91.02453107224584

_space_group_name_H-M_alt    "P 1"
_space_group_IT_number       1

loop_
  _space_group_symop_operation_xyz
  'x, y, z'

loop_
  _atom_site_type_symbol
  _atom_site_label
  _atom_site_symmetry_multiplicity
  _atom_site_fract_x
  _atom_site_fract_y
  _atom_site_fract_z
  _atom_site_occupancy
  N   N1        1.0  0.604380177810947  0.8579030251336077  0.9905336769148099  1.0000
  C   C1        1.0  0.5512079916480617  0.848239789539737  0.9739891211826203  1.0000
  C   C2        1.0  0.4850682549730069  0.836220570312718  0.9534094316640096  1.0000
  C   C3        1.0  0.46418703064701455  0.7653271348986214  0.9240451664741245  1.0000
  C   C4        1.0  0.39993598809197206  0.7535854158713233  0.9041162512538328  1.0000
  C   C5        1.0  0.3558911787736248  0.8129099531593388  0.9126250372162612  1.0000
  C   C6        1.0  0.3771381133758803  0.883615519296701  0.9432033222946405  1.0000
  C   C7        1.0  0.4413949906022809  0.8952521692401624  0.9631331118509396  1.0000
  C   C8        1.0  0.2877142399833291  0.7997123879490327  0.8925298269788764  1.0000
  O   O1        1.0  0.26442132307917793  0.731729955109298  0.9059821971571358  1.0000
  N   N2        1.0  0.2474410982657898  0.8627743143886163  0.8597350729168318  1.0000
  C   C9        1.0  0.18169149215178304  0.8622013836912992  0.8868405097940444  1.0000
  C   C10       1.0  0.159818462911211  0.918390184408546  0.9414596222097129  1.0000
  C   C11       1.0  0.09582898764794551  0.918440167473064  0.9677352515266071  1.0000
  C   C12       1.0  0.0531843159146735  0.8624145230590343  0.9393299905413286  1.0000
  C   C13       1.0  0.9873024996017218  0.8624806334065839  0.9663342047432719  1.0000
  N   N3        1.0  0.9343363083390996  0.8625337003313329  0.9880445370582572  1.0000
  C   C14       1.0  0.07478101671698172  0.8064281635951681  0.8844173715078993  1.0000
  C   C15       1.0  0.13877878390428414  0.8063715370502498  0.8581583212566826  1.0000
  C   C16       1.0  0.27165120488653044  0.9239470734345769  0.7959473214483359  1.0000
  O   O2        1.0  0.23692331396538902  0.9795855435775266  0.7673997302227333  1.0000
  H   H1        1.0  0.497537762105521  0.7191286250564819  0.9165908876272832  1.0000
  H   H2        1.0  0.3847301658207872  0.6983817077990797  0.8813251538314637  1.0000
  H   H3        1.0  0.3439797604174115  0.9295353951100531  0.9527356822508521  1.0000
  H   H4        1.0  0.456944166886358  0.9501314267613988  0.9864935191852469  1.0000
  H   H5        1.0  0.19250746282566333  0.9618307387787908  0.9637839528395742  1.0000
  H   H6        1.0  0.07963463841287981  0.962082236385933  0.010109924147582385  1.0000
  H   H7        1.0  0.0421665450630068  0.763002067321575  0.8617802090761082  1.0000
  H   H8        1.0  0.1548587604807145  0.7633015409427295  0.8150237444318162  1.0000
  H   H9        1.0  0.3200325243800817  0.9225092849423565  0.7709128676993768  1.0000
  C   C17       1.0  0.7680749874641125  0.6322924975705002  0.9928592786006973  1.0000
  C   C18       1.0  0.7970287298699803  0.5897441745606905  0.06627147333084671  1.0000
  C   C19       1.0  0.7938988948839848  0.5084113165483622  0.07488993317997017  1.0000
  C   C20       1.0  0.7623734888124525  0.4682001548693731  0.009945062480169357  1.0000
  C   C21       1.0  0.7326541370163016  0.5104703393469675  0.9372675046705197  1.0000
  C   C22       1.0  0.7357322100104089  0.591798999526227  0.9285550194692791  1.0000
  C   C23       1.0  0.7582144840258095  0.3822977832575281  0.020950739157770577  1.0000
  Cl  Cl1       1.0  0.720569359031569  0.3399215304947426  0.12026026182686966  1.0000
  C   C24       1.0  0.7805413325739355  0.3381319729205344  0.9577121110868415  1.0000
  Cl  Cl2       1.0  0.8181865048920315  0.3805081739697587  0.8584025202616792  1.0000
  C   C25       1.0  0.7763815191930524  0.25222971457482485  0.9687169842328784  1.0000
  C   C26       1.0  0.8061009644344943  0.20995916317544874  0.041391973595078735  1.0000
  C   C27       1.0  0.8030172458532044  0.12863367673410278  0.050088921367160935  1.0000
  C   C28       1.0  0.770647566514528  0.08813832810029884  0.9857267203489375  1.0000
  C   C29       1.0  0.7417183152501364  0.13068316451219467  0.9123749551207154  1.0000
  C   C30       1.0  0.7448544490272683  0.21201891368103648  0.9037709801887268  1.0000
  H   H10       1.0  0.7442626920547812  0.8189466881927294  0.9034361427363644  1.0000
  H   H11       1.0  0.8220494622050811  0.6192634416753976  0.11714461026730084  1.0000
  H   H12       1.0  0.8164699396073711  0.4767481083262786  0.13198820200004835  1.0000
  H   H13       1.0  0.7067458063302345  0.48045154808056695  0.8876132536454155  1.0000
  H   H14       1.0  0.71256419736398  0.6228882371185618  0.871633909282987  1.0000
  H   H15       1.0  0.8320105962759291  0.239972370844231  0.09104949315365829  1.0000
  H   H16       1.0  0.8261800722626702  0.09751103802624028  0.1070030708573877  1.0000
  H   H17       1.0  0.7166939662944599  0.10119768305607203  0.8614885913222357  1.0000
  H   H18       1.0  0.722284149361976  0.24368767545525644  0.8466757741277031  1.0000
  H   H19       1.0  0.7325421278740619  0.9035517974650559  0.9358793207191369  1.0000
  C   C31       1.0  0.7693817410664525  0.8602300000518625  0.7252880132877633  1.0000
  C   C32       1.0  0.7289960175718994  0.9114897177080777  0.6750718090467462  1.0000
  C   C33       1.0  0.6947825829391686  0.8868466094326662  0.60218183311242  1.0000
  C   C34       1.0  0.6998027454765586  0.8101309417586152  0.5784130010025148  1.0000
  C   C35       1.0  0.7407746398127252  0.7592102257395873  0.6280321679035141  1.0000
  C   C36       1.0  0.7750043893868231  0.7838337159348481  0.7009138800278862  1.0000
  C   C37       1.0  0.6645328746347938  0.7827282235125257  0.49809192878837605  1.0000
  S   S1        1.0  0.5811650960771687  0.8133408373377933  0.4941894313595021  1.0000
  C   C38       1.0  0.5582222218920411  0.7548052513767132  0.5931291579211453  1.0000
  N   N4        1.0  0.5432640882316525  0.7165076951321901  0.6579212204400413  1.0000
  C   C39       1.0  0.6995791703253793  0.8099877643193697  0.41146685004771877  1.0000
  C   C40       1.0  0.7396891946101624  0.7586658178399001  0.37108273372045164  1.0000
  C   C41       1.0  0.7739800953198438  0.7833480073762535  0.29265495094056937  1.0000
  C   C42       1.0  0.7693408115575333  0.860200827963303  0.25329802383713096  1.0000
  C   C43       1.0  0.7298841069457265  0.9118632786156204  0.29419389162815346  1.0000
  C   C44       1.0  0.6956045259976817  0.8871709168781632  0.3726309194273516  1.0000
  H   H20       1.0  0.8242482866146326  0.9810719939077442  0.8785743455110178  1.0000
  H   H21       1.0  0.7238578446964125  0.9708084109740431  0.6919118334106764  1.0000
  H   H22       1.0  0.6642795378313113  0.9278180101363496  0.5646389944393311  1.0000
  H   H23       1.0  0.7463631922587343  0.7002123685975155  0.6102522200392584  1.0000
  H   H24       1.0  0.8060042172788537  0.7430554484937069  0.7379978492277477  1.0000
  H   H25       1.0  0.6625057833318635  0.7179218379190707  0.5044196311417353  1.0000
  H   H26       1.0  0.7446292229501477  0.6993197844448514  0.4004354074776151  1.0000
  H   H27       1.0  0.8042877544110928  0.7422572727104261  0.2630387775878431  1.0000
  H   H28       1.0  0.725553366539718  0.9715509070968885  0.2657712564546799  1.0000
  H   H29       1.0  0.665928436082695  0.9285187244295304  0.4027563973122681  1.0000
  H   H30       1.0  0.8253602450882114  0.9816170272418682  0.07509766461045353  1.0000
  Zn  Zn1       1.0  0.6995983792332142  0.8592372605538278  0.9898205850626796  1.0000
  Zn  Zn2       1.0  0.8391180645656587  0.8611931159809485  0.9887650784197481  1.0000
  C   C45       1.0  0.7693296680847945  0.8571142686116012  0.15354120733194654  1.0000
  C   C46       1.0  0.7693883047846808  0.8633171086004895  0.8250445175405239  1.0000
  C   C47       1.0  0.7701582851880013  0.0019739225362218724  0.9834924267779424  1.0000
  C   C48       1.0  0.7685596348067735  0.718456521487832  0.9950933609765006  1.0000
  O   O3        1.0  0.8223374819894911  0.865092021230243  0.8581232053668073  1.0000
  O   O4        1.0  0.8222727004971512  0.8568232194767781  0.11966116475092553  1.0000
  O   O5        1.0  0.8229411054640039  0.9737992119639298  0.9823455641023977  1.0000
  O   O6        1.0  0.8216690294505816  0.7481160336317337  0.9954387388804136  1.0000
  O   O7        1.0  0.717047366737075  0.9723143422364505  0.9831469249574643  1.0000
  O   O8        1.0  0.7163789670337063  0.8553392822707426  0.12046246307947073  1.0000
  O   O9        1.0  0.7164437484995585  0.8636080570371851  0.8589234232289167  1.0000
  O   O10       1.0  0.7157752959214891  0.7466320638834412  0.9962390242328952  1.0000
