data_image0
_chemical_formula_structural       NC9NC3SH6C8NH7C7OCH10Zn2C4O8
_chemical_formula_sum              "N3 C32 S1 H23 O9 Zn2"
_cell_length_a       16.77567553997237
_cell_length_b       9.274263428431858
_cell_length_c       10.300835455316063
_cell_angle_alpha    85.53020100870764
_cell_angle_beta     90.414716717709
_cell_angle_gamma    91.51050711931723

_space_group_name_H-M_alt    "P 1"
_space_group_IT_number       1

loop_
  _space_group_symop_operation_xyz
  'x, y, z'

loop_
  _atom_site_type_symbol
  _atom_site_label
  _atom_site_symmetry_multiplicity
  _atom_site_fract_x
  _atom_site_fract_y
  _atom_site_fract_z
  _atom_site_occupancy
  N   N1        1.0  0.7599540992288987  0.5991922972902886  0.5738102911804845  1.0000
  C   C1        1.0  0.7055411989151559  0.6540013952180057  0.6153800190795233  1.0000
  C   C2        1.0  0.6380139679566686  0.7220158618743991  0.666964870625711  1.0000
  C   C3        1.0  0.6407532998277284  0.8198997740811462  0.7619631598645367  1.0000
  C   C4        1.0  0.5654111902217958  0.8682023301884201  0.7934491951769181  1.0000
  C   C5        1.0  0.5030340876446413  0.8081439291055719  0.7228705459815702  1.0000
  C   C6        1.0  0.41671865166298316  0.8371019502565078  0.7337071419069634  1.0000
  C   C7        1.0  0.35936151350867807  0.7486722532001406  0.6754676057247719  1.0000
  C   C8        1.0  0.2778822133291852  0.7753965860461192  0.6852487322055885  1.0000
  C   C9        1.0  0.21983960264417307  0.6840019955580641  0.6256153814862457  1.0000
  N   N2        1.0  0.17319044713407486  0.6105338420196172  0.577678978529931  1.0000
  C   C10       1.0  0.2529322710837647  0.8908988787647616  0.7531081343551227  1.0000
  C   C11       1.0  0.30919871455873243  0.9795048610003824  0.8108860425103064  1.0000
  C   C12       1.0  0.39052283222068773  0.9531841403418071  0.8013992929982723  1.0000
  S   S1        1.0  0.5429201229544376  0.6947077322545367  0.6218239287321693  1.0000
  H   H1        1.0  0.6953773139540489  0.8553067280856214  0.8077102565264709  1.0000
  H   H2        1.0  0.5576121852211195  0.9436529638597987  0.866889964768586  1.0000
  H   H3        1.0  0.377608202107276  0.6583442465581097  0.6230662497933336  1.0000
  H   H4        1.0  0.19007892974018092  0.9125178359839048  0.7611853532442021  1.0000
  H   H5        1.0  0.2897672499887183  0.06915343607803504  0.8629702676526727  1.0000
  H   H6        1.0  0.4324015732911456  0.025005401308541255  0.8461203607418818  1.0000
  C   C13       1.0  0.9640528865281751  0.18121053999207423  0.5759970098982674  1.0000
  C   C14       1.0  0.9537252784963989  0.26426497772502683  0.45722822917497424  1.0000
  C   C15       1.0  0.9512186255048166  0.1992632138196793  0.33960691399175613  1.0000
  C   C16       1.0  0.9596257548710907  0.04971178600975735  0.33785111025391495  1.0000
  C   C17       1.0  0.9678132876623674  0.9650938629516208  0.45580387874958433  1.0000
  C   C18       1.0  0.9690992311990753  0.02850478038360162  0.5755036171249907  1.0000
  C   C19       1.0  0.9557335905695287  0.9795938284004496  0.21111982702867088  1.0000
  C   C20       1.0  0.8729965682793822  0.9383813939037362  0.1814859521253791  1.0000
  N   N3        1.0  0.8076940023719337  0.9058519537789568  0.158105153371896  1.0000
  H   H7        1.0  0.0329175413519911  0.26142240992541477  0.8760139731055125  1.0000
  H   H8        1.0  0.949317023017926  0.38076249834976467  0.4550602341880318  1.0000
  H   H9        1.0  0.9434641554489835  0.26596170912564115  0.2495464994135208  1.0000
  H   H10       1.0  0.9712559118662506  0.8486984701097634  0.45412569073381337  1.0000
  H   H11       1.0  0.01236064577205065  0.7322346115452312  0.7792265801060545  1.0000
  H   H12       1.0  0.9925741741522529  0.8814905874345984  0.21648983094103214  1.0000
  H   H13       1.0  0.9792669584272036  0.05503783603078593  0.13053225898201726  1.0000
  C   C21       1.0  0.9665031653392105  0.6047820424806662  0.194433129176194  1.0000
  C   C22       1.0  0.04012970283149021  0.6805996390276827  0.1891389476234457  1.0000
  C   C23       1.0  0.0767591055549317  0.7203011280533202  0.0692439804957734  1.0000
  C   C24       1.0  0.04032128583576977  0.6807965753722118  0.9538418339393705  1.0000
  C   C25       1.0  0.9666489622770366  0.6049332160346974  0.957067504066258  1.0000
  C   C26       1.0  0.9300854671799099  0.5676786263883148  0.07779742098627729  1.0000
  C   C27       1.0  0.15662543474327184  0.7976765901014793  0.06497844606893577  1.0000
  O   O1        1.0  0.21693601106633098  0.6940471153475162  0.07311833549142954  1.0000
  C   C28       1.0  0.29224703941466945  0.7653461688277029  0.06923931963558559  1.0000
  H   H14       1.0  0.93874012337629  0.5742612020028672  0.5239685925982331  1.0000
  H   H15       1.0  0.06929604911024367  0.7090584022655482  0.2781328568921344  1.0000
  H   H16       1.0  0.0696190422897327  0.7093918467648377  0.861662058894022  1.0000
  H   H17       1.0  0.8733052565384324  0.5091939929201381  0.08111822973795  1.0000
  H   H18       1.0  0.8281057481596701  0.4603974219593033  0.7560074939964743  1.0000
  H   H19       1.0  0.16126445120645916  0.8682109018358118  0.1476595767130211  1.0000
  H   H20       1.0  0.1614493358874511  0.8682379774352611  0.9725472456458037  1.0000
  H   H21       1.0  0.3389839039205258  0.6826365832946042  0.07570802461916926  1.0000
  H   H22       1.0  0.3007119418129227  0.8325554156059478  0.15341870891861387  1.0000
  H   H23       1.0  0.30090699510409546  0.8326209362106964  0.9759094805552049  1.0000
  Zn  Zn1       1.0  0.8792051642061623  0.6024613718121086  0.5749342195802508  1.0000
  Zn  Zn2       1.0  0.05393930913609313  0.6072530006266812  0.5765657206515922  1.0000
  C   C29       1.0  0.9665853810976176  0.5991573034741788  0.812916586945155  1.0000
  C   C30       1.0  0.9665610112018201  0.6105589416134796  0.33858349749175765  1.0000
  C   C31       1.0  0.968140266816057  0.8683469585553463  0.5704223556607666  1.0000
  C   C32       1.0  0.9650060555488317  0.3413675516121127  0.5810777984580312  1.0000
  O   O2        1.0  0.032891084682475036  0.6143098259761051  0.38758082774746105  1.0000
  O   O3        1.0  0.03287447399241583  0.5990420660891453  0.7651571550907048  1.0000
  O   O4        1.0  0.03412917023244888  0.8164160926898185  0.5693413384215857  1.0000
  O   O5        1.0  0.03163632886036937  0.3969358080413343  0.5833965464923927  1.0000
  O   O6        1.0  0.9015080848537059  0.8127785627638774  0.5681033931758683  1.0000
  O   O7        1.0  0.9002533989200416  0.595406269449825  0.7639191395995205  1.0000
  O   O8        1.0  0.9002700090652822  0.6106739787550803  0.3863412510971951  1.0000
  O   O9        1.0  0.8990152531970692  0.393299950520829  0.5821570672027324  1.0000
