data_image0
_chemical_formula_structural       NC9NC3OH6C7H7C6SCH6Zn2C4O8
_chemical_formula_sum              "N2 C30 O9 H19 S1 Zn2"
_cell_length_a       15.78231758774541
_cell_length_b       9.274341958901593
_cell_length_c       10.302812801239595
_cell_angle_alpha    85.52848013083198
_cell_angle_beta     90.08384720459999
_cell_angle_gamma    89.0114341261544

_space_group_name_H-M_alt    "P 1"
_space_group_IT_number       1

loop_
  _space_group_symop_operation_xyz
  'x, y, z'

loop_
  _atom_site_type_symbol
  _atom_site_label
  _atom_site_symmetry_multiplicity
  _atom_site_fract_x
  _atom_site_fract_y
  _atom_site_fract_z
  _atom_site_occupancy
  N   N1        1.0  0.7878749685682557  0.5697922487713623  0.5695365546958723  1.0000
  C   C1        1.0  0.7399235960511044  0.47864014185305287  0.5936569468656099  1.0000
  C   C2        1.0  0.680390014961112  0.3654982206451883  0.6235965667924903  1.0000
  C   C3        1.0  0.700957977025919  0.2233737350827627  0.6611261696267412  1.0000
  C   C4        1.0  0.6246661772643612  0.15449464578407615  0.6793890117555867  1.0000
  C   C5        1.0  0.5622154436915059  0.2596830311022553  0.6516540775798861  1.0000
  C   C6        1.0  0.46924835024270856  0.24023530631424594  0.6568735801122283  1.0000
  C   C7        1.0  0.4147436275325956  0.3594795255502854  0.6252675764361921  1.0000
  C   C8        1.0  0.3266387269673255  0.34353285747200046  0.6295546018034335  1.0000
  C   C9        1.0  0.2714154052850895  0.46624654912448094  0.5970207612437441  1.0000
  N   N2        1.0  0.22702885027093903  0.5648925249938164  0.5708664637374574  1.0000
  C   C10       1.0  0.29235839248172807  0.20816449186576969  0.6654967031951697  1.0000
  C   C11       1.0  0.3459306122310974  0.08916680670116703  0.6970417180594761  1.0000
  C   C12       1.0  0.43385264125238215  0.10467539422803206  0.6928711926646267  1.0000
  O   O1        1.0  0.5978797331654755  0.38434494081737836  0.6186871472942856  1.0000
  H   H1        1.0  0.763723708460272  0.1754442599064394  0.6737316645182091  1.0000
  H   H2        1.0  0.6166555010746004  0.04123935512510645  0.7093105874580614  1.0000
  H   H3        1.0  0.44067804381579206  0.464820116773895  0.5972935284005236  1.0000
  H   H4        1.0  0.22432813900110724  0.1946584926953221  0.6691254689930721  1.0000
  H   H5        1.0  0.31926129258723324  0.9845463784284355  0.7248249444458956  1.0000
  H   H6        1.0  0.4735395037485723  0.010420847361742864  0.7178653132242014  1.0000
  C   C13       1.0  0.010149957865905227  0.1437365685011287  0.5704320884322231  1.0000
  C   C14       1.0  0.020166634803209467  0.22696968627019887  0.45158878055622975  1.0000
  C   C15       1.0  0.021752929040447455  0.16199778350744398  0.33398021188372073  1.0000
  C   C16       1.0  0.012430660803804276  0.012471521757552844  0.33238404584170267  1.0000
  C   C17       1.0  0.00505364174495515  0.9276010754218573  0.4502746865524021  1.0000
  C   C18       1.0  0.004761996620395786  0.990937018888941  0.5699822008660889  1.0000
  C   C19       1.0  0.016010820139502606  0.942440132391056  0.2060044701025734  1.0000
  H   H7        1.0  0.9396410230745521  0.2226809768306037  0.8710110970378564  1.0000
  H   H8        1.0  0.024969087248889008  0.3435238387919741  0.4493717796561881  1.0000
  H   H9        1.0  0.029358488271274522  0.2287892038556976  0.2438688335427311  1.0000
  H   H10       1.0  0.960661632373466  0.6938352818452506  0.774059198953355  1.0000
  H   H11       1.0  0.08264912078224967  0.9121496608672713  0.18493952331823404  1.0000
  H   H12       1.0  0.9913006312038545  0.017533099863191737  0.12490899416065115  1.0000
  H   H13       1.0  0.9769162341018619  0.8437043015385303  0.21107914956835463  1.0000
  C   C20       1.0  0.007456012485709923  0.5673368099801999  0.18895866920561402  1.0000
  C   C21       1.0  0.9779636472468649  0.7115093490992346  0.17759845206124725  1.0000
  C   C22       1.0  0.9630720687907317  0.7830347284159938  0.054969832859240286  1.0000
  C   C23       1.0  0.9779635718165226  0.7115091985260258  0.942447282221075  1.0000
  C   C24       1.0  0.007455957583467622  0.5673368008722237  0.9514555726738672  1.0000
  C   C25       1.0  0.02203199515800878  0.49594276010721733  0.07525032273146248  1.0000
  S   S1        1.0  0.9255645651854895  0.9673413305310339  0.04195080047455702  1.0000
  C   C26       1.0  0.8144220758158943  0.9181854731501646  0.04515215888417501  1.0000
  H   H14       1.0  0.9662481200710842  0.7687751050062637  0.2636527808093587  1.0000
  H   H15       1.0  0.9662479517391045  0.7687748991034333  0.8483024674238544  1.0000
  H   H16       1.0  0.04476545838761378  0.3847266988396989  0.08310650138979514  1.0000
  H   H17       1.0  0.7998040798918744  0.8541807739029609  0.9614944129311458  1.0000
  H   H18       1.0  0.7998044335481611  0.8541822276906147  0.1377291052894827  1.0000
  H   H19       1.0  0.7745702400599297  0.01818973139397649  0.03804401196885787  1.0000
  Zn  Zn1       1.0  0.9146053134410818  0.5683744411605605  0.5699278308636602  1.0000
  Zn  Zn2       1.0  0.10029855177987551  0.5662985592355179  0.5704858067880658  1.0000
  C   C27       1.0  0.007490626814559363  0.5615901508291941  0.8073303904134054  1.0000
  C   C28       1.0  0.0074152545955012954  0.5730846469961148  0.33308337979100267  1.0000
  C   C29       1.0  0.005776090736990371  0.830798161831057  0.5648936640702797  1.0000
  C   C30       1.0  0.009129738330985186  0.3038749035954682  0.5755201760808826  1.0000
  O   O2        1.0  0.0778712320993806  0.5742195940077177  0.3816647015564538  1.0000
  O   O3        1.0  0.07797152748159192  0.5588785692417042  0.7591721863138559  1.0000
  O   O4        1.0  0.07658606795146361  0.7762674533453922  0.5634028108606544  1.0000
  O   O5        1.0  0.07925662819936535  0.3568307209315107  0.577433979469864  1.0000
  O   O6        1.0  0.9356471736535936  0.7778422801745344  0.5629796579846227  1.0000
  O   O7        1.0  0.9370326221578077  0.5604551291795967  0.7587489632938302  1.0000
  O   O8        1.0  0.9369323271517486  0.5757961036769201  0.38123991765577214  1.0000
  O   O9        1.0  0.9383177233138786  0.3584072202831998  0.5770092929117348  1.0000
