data_image0
_chemical_formula_structural       NC5NC3OH4C9H10C6BrH4Zn2C4O8
_chemical_formula_sum              "N2 C27 O9 H18 Br1 Zn2"
_cell_length_a       13.84702359539666
_cell_length_b       10.297183801781406
_cell_length_c       9.27656775626242
_cell_angle_alpha    86.09344643719086
_cell_angle_beta     90.17190505705399
_cell_angle_gamma    89.99848952151973

_space_group_name_H-M_alt    "P 1"
_space_group_IT_number       1

loop_
  _space_group_symop_operation_xyz
  'x, y, z'

loop_
  _atom_site_type_symbol
  _atom_site_label
  _atom_site_symmetry_multiplicity
  _atom_site_fract_x
  _atom_site_fract_y
  _atom_site_fract_z
  _atom_site_occupancy
  N   N1        1.0  0.9058710668806789  0.40769387352108294  0.4095848717335342  1.0000
  C   C1        1.0  0.8338643844051122  0.40044070027564915  0.4726230464610879  1.0000
  C   C2        1.0  0.7441890480271294  0.3914089673512047  0.5511188563366074  1.0000
  C   C3        1.0  0.6564396119337946  0.40013418849429466  0.4752862693782444  1.0000
  C   C4        1.0  0.5687415816776994  0.3915103402805298  0.550237389161061  1.0000
  C   C5        1.0  0.47872035471966523  0.40049364011473554  0.4721626302743633  1.0000
  N   N2        1.0  0.40635493123253624  0.4077155255144034  0.40939674845604324  1.0000
  C   C6        1.0  0.5687881262683777  0.3741352375676248  0.70124639394937  1.0000
  C   C7        1.0  0.656157481997574  0.36540185952888854  0.7771469886156543  1.0000
  C   C8        1.0  0.7441719975230902  0.3739701439429983  0.7026803824858894  1.0000
  O   O1        1.0  0.8312620078910963  0.3652218725102725  0.7787123347650127  1.0000
  H   H1        1.0  0.6564081334191186  0.4135950293215336  0.3582974862587247  1.0000
  H   H2        1.0  0.5013619850385369  0.3673478070578413  0.7602363743959595  1.0000
  H   H3        1.0  0.6554101024896354  0.3519677241208872  0.8939044418633428  1.0000
  H   H4        1.0  0.8330322735633741  0.3526487639933644  0.8879856086120874  1.0000
  C   C9        1.0  0.15612143619541174  0.026230937434955855  0.4096949501631151  1.0000
  C   C10       1.0  0.15297584747717946  0.03475303036665144  0.2580724255551965  1.0000
  C   C11       1.0  0.15136404701304132  0.9225026603859281  0.18039177237074444  1.0000
  C   C12       1.0  0.15296325374860012  0.7995767520532178  0.2574847592522804  1.0000
  C   C13       1.0  0.15611382841532784  0.7891685708128711  0.4092990638185128  1.0000
  C   C14       1.0  0.15767143658077548  0.9029630473271717  0.48441315053542217  1.0000
  C   C15       1.0  0.1479616035036982  0.9411521004466908  0.016401305812204565  1.0000
  C   C16       1.0  0.09123920237781857  0.8417250528848103  0.936212804736469  1.0000
  C   C17       1.0  0.2012506426854257  0.8419976385598393  0.9315941470042853  1.0000
  H   H5        1.0  0.1573427023111864  0.3504855560660369  0.46811996876499085  1.0000
  H   H6        1.0  0.15176167948003316  0.12946539376642185  0.19953776572692306  1.0000
  H   H7        1.0  0.1517804600694348  0.7114748902514424  0.2005755964826872  1.0000
  H   H8        1.0  0.16009784029468221  0.8956606307860939  0.6013931124167673  1.0000
  H   H9        1.0  0.16205154835615754  0.5622939966675019  0.6960335425198418  1.0000
  H   H10       1.0  0.1468688849585975  0.041402566284773  0.9636918866660791  1.0000
  H   H11       1.0  0.059156530827423774  0.7586646931120535  0.0017973545289937634  1.0000
  H   H12       1.0  0.05694689936875408  0.8816970989258971  0.8342812128993096  1.0000
  H   H13       1.0  0.2359940151243094  0.7591036662970344  0.9943738624370622  1.0000
  H   H14       1.0  0.2312551822495257  0.8821266198746429  0.8269618235315543  1.0000
  C   C18       1.0  0.15519585214489928  0.40396654575085345  0.9863725532874842  1.0000
  C   C19       1.0  0.06937766933296574  0.4352356819242029  0.056999426973590284  1.0000
  C   C20       1.0  0.9878507961169747  0.47720544887417615  0.9783073076684428  1.0000
  C   C21       1.0  0.9906107825316719  0.4887561521477979  0.8278044331733199  1.0000
  C   C22       1.0  0.07453571285196148  0.4560836526731559  0.755451936998472  1.0000
  C   C23       1.0  0.1570394277909404  0.41143300165126606  0.8326215089909756  1.0000
  Br  Br1       1.0  0.8790264272995134  0.5472430730834772  0.7205658061422406  1.0000
  H   H15       1.0  0.28805063432185896  0.2859813710098635  0.2772180174878762  1.0000
  H   H16       1.0  0.9227432166475131  0.5019702712186749  0.0346363205957918  1.0000
  H   H17       1.0  0.0743836559748037  0.4627193127095924  0.6383980880002422  1.0000
  H   H18       1.0  0.315938730422076  0.3980259086250393  0.5531739998980427  1.0000
  Zn  Zn1       1.0  0.05029991549391699  0.407696717486671  0.40953889350702943  1.0000
  Zn  Zn2       1.0  0.26192608428243047  0.40770215605535104  0.409454491424764  1.0000
  C   C24       1.0  0.15668882232931616  0.4048465451335364  0.6726650064761805  1.0000
  C   C25       1.0  0.15553948868992107  0.4105539687859139  0.14632851810607495  1.0000
  C   C26       1.0  0.15609777358817345  0.6449064550918258  0.4036321265630245  1.0000
  C   C27       1.0  0.15613046540079134  0.17049249877181327  0.4153614756773023  1.0000
  O   O2        1.0  0.23596584446641902  0.4127611647420646  0.19997917390514997  1.0000
  O   O3        1.0  0.23688183107328192  0.40264249327364054  0.6189498771801558  1.0000
  O   O4        1.0  0.23640347237278528  0.5964939197278907  0.40170392292897317  1.0000
  O   O5        1.0  0.23644413071779183  0.2189097466255392  0.417225020144226  1.0000
  O   O6        1.0  0.07578179684091402  0.5964891269159747  0.4017683648087902  1.0000
  O   O7        1.0  0.07626015535404096  0.40263926051702725  0.6190142414231234  1.0000
  O   O8        1.0  0.07534416503794161  0.4127578714325453  0.20004180581529796  1.0000
  O   O9        1.0  0.07582245152079659  0.21890644497778688  0.4172877600877025  1.0000
