data_image0
_chemical_formula_structural       NC9NC3OCH8C12ClH9C11NCOCH13Zn2C4O8
_chemical_formula_sum              "N3 C42 O10 H30 Cl1 Zn2"
_cell_length_a       17.728193572023454
_cell_length_b       10.299768534541528
_cell_length_c       10.299158637457994
_cell_angle_alpha    85.58253282463849
_cell_angle_beta     90.68674526026633
_cell_angle_gamma    88.4716702258364

_space_group_name_H-M_alt    "P 1"
_space_group_IT_number       1

loop_
  _space_group_symop_operation_xyz
  'x, y, z'

loop_
  _atom_site_type_symbol
  _atom_site_label
  _atom_site_symmetry_multiplicity
  _atom_site_fract_x
  _atom_site_fract_y
  _atom_site_fract_z
  _atom_site_occupancy
  N   N1        1.0  0.7111220610319675  0.3863884110851825  0.5852310371195257  1.0000
  C   C1        1.0  0.6504974612089252  0.3489658324636006  0.5982347129179821  1.0000
  C   C2        1.0  0.5750281895713868  0.3024445798705784  0.6144189562535387  1.0000
  C   C3        1.0  0.5630943893382607  0.17441264903188644  0.6238335047517236  1.0000
  C   C4        1.0  0.4863681271830316  0.12496752819645396  0.6387820883166442  1.0000
  C   C5        1.0  0.4282384779893833  0.2076417429167101  0.656256032159273  1.0000
  C   C6        1.0  0.3501738394951306  0.16260246209560236  0.6779884716871789  1.0000
  C   C7        1.0  0.2888615538536398  0.24805675258850954  0.6425303213012339  1.0000
  C   C8        1.0  0.2145726605519742  0.20876199532036588  0.6626768054544179  1.0000
  C   C9        1.0  0.1522826717810602  0.29675230834594823  0.6251443962213699  1.0000
  N   N2        1.0  0.10221492737348462  0.36748799466270743  0.5949718870523382  1.0000
  C   C10       1.0  0.2009643639299337  0.08389346915551953  0.7193355343701313  1.0000
  C   C11       1.0  0.26137780595135524  0.9987572188998548  0.756202280146538  1.0000
  C   C12       1.0  0.3355629125840862  0.03756240579014156  0.7361853588978173  1.0000
  O   O1        1.0  0.4416303765388473  0.3414240721015716  0.654966880806149  1.0000
  C   C13       1.0  0.5093788921145415  0.3987861095561185  0.6063594888878803  1.0000
  H   H1        1.0  0.6100035660233561  0.10495265839363799  0.6217290118527041  1.0000
  H   H2        1.0  0.47868875981328807  0.021319808676780072  0.6367945850594605  1.0000
  H   H3        1.0  0.2987862376837694  0.3448644843906811  0.5981077997574207  1.0000
  H   H4        1.0  0.14373859270972317  0.05261151054734237  0.7354743921836862  1.0000
  H   H5        1.0  0.25071651202028455  0.9026085012786947  0.8010859747212451  1.0000
  H   H6        1.0  0.3810702842778891  0.9703446737959828  0.768602743434227  1.0000
  H   H7        1.0  0.49993788393483884  0.43467853381354704  0.5028337341086734  1.0000
  H   H8        1.0  0.5222727487579455  0.483190079190682  0.6629464891252423  1.0000
  C   C14       1.0  0.9066009459806759  0.9955760790756951  0.5900976598517413  1.0000
  C   C15       1.0  0.9115965054495395  0.004852184905227647  0.4537519825072132  1.0000
  C   C16       1.0  0.9142003422619048  0.8924095909010936  0.3846737392773101  1.0000
  C   C17       1.0  0.9117406321321019  0.7695575076892812  0.4537710623221572  1.0000
  C   C18       1.0  0.9067432973975375  0.758289958593856  0.5901166334003631  1.0000
  C   C19       1.0  0.9042019954165146  0.8718547094454397  0.6575164098902849  1.0000
  C   C20       1.0  0.919486231107288  0.9032765568929276  0.24043140396885046  1.0000
  C   C21       1.0  0.8765686185248439  0.9988644367647315  0.1648980221903103  1.0000
  C   C22       1.0  0.8816110838761407  0.008893693428290163  0.029142696485740856  1.0000
  C   C23       1.0  0.9294986010301495  0.9238601144611457  0.9672270729273853  1.0000
  C   C24       1.0  0.9724041277378626  0.8285845296596716  0.041248920165846574  1.0000
  C   C25       1.0  0.9674956722119419  0.8181565506108459  0.17702222700776482  1.0000
  Cl  Cl1       1.0  0.9357410399328717  0.9366934133161153  0.7968960872773142  1.0000
  H   H9        1.0  0.9046586722560119  0.31949704649012856  0.6420478571845156  1.0000
  H   H10       1.0  0.9145157468142019  0.09970486104664444  0.40109164805201414  1.0000
  H   H11       1.0  0.9126905385343963  0.682659125307213  0.40084812103456163  1.0000
  H   H12       1.0  0.9003473869808275  0.8639304690216366  0.762700804549516  1.0000
  H   H13       1.0  0.9048691247096974  0.42654129878700686  0.6420763279570615  1.0000
  H   H14       1.0  0.838404469958404  0.06470122120100408  0.21069134644849077  1.0000
  H   H15       1.0  0.8481160200133789  0.08260652650749577  0.9721962014758693  1.0000
  H   H16       1.0  0.009726993550375658  0.7627411905773062  0.9937451497919543  1.0000
  H   H17       1.0  0.001948613351403948  0.7446902076504947  0.23249826160687137  1.0000
  C   C26       1.0  0.9067428425139825  0.3767916560610818  0.20873583582531374  1.0000
  C   C27       1.0  0.9085217179397324  0.5134076842946549  0.1974693709788689  1.0000
  C   C28       1.0  0.909364430189526  0.5828166178601444  0.07459801341979166  1.0000
  C   C29       1.0  0.9083773232715846  0.513774528905169  0.9621543032932555  1.0000
  C   C30       1.0  0.9066013945296467  0.37707445015386076  0.9714785336781622  1.0000
  C   C31       1.0  0.9057983883586584  0.3094233903485182  0.09515756184571211  1.0000
  C   C32       1.0  0.9112471664571177  0.7273395679547519  0.0636530371886821  1.0000
  C   C33       1.0  0.9593554673072445  0.9289372485111105  0.13694523133000902  1.0000
  C   C34       1.0  0.9153168033704315  0.002050223402836781  0.04170025519183041  1.0000
  C   C35       1.0  0.8680877844043156  0.9368597763741688  0.9597382620178565  1.0000
  C   C36       1.0  0.866340867328763  0.8008827670716824  0.9699085514724519  1.0000
  N   N3        1.0  0.9150547535150684  0.1421075665685274  0.03046119100541623  1.0000
  C   C37       1.0  0.9797246830454656  0.2179694120286619  0.05530507718752898  1.0000
  O   O2        1.0  0.044779506043062245  0.16541328644787257  0.06544051253406291  1.0000
  C   C38       1.0  0.9708995001013359  0.36220972770888693  0.05969074763223414  1.0000
  H   H18       1.0  0.9060822531163356  0.3242402835683733  0.5405457622804866  1.0000
  H   H19       1.0  0.9082016903974802  0.5662399092314738  0.2844133265401317  1.0000
  H   H20       1.0  0.9100232496388049  0.5667080982733553  0.8672247648763999  1.0000
  H   H21       1.0  0.9044288834903546  0.20404813111009412  0.10313281660695961  1.0000
  H   H22       1.0  0.9037075494135984  0.11902268539100523  0.7817967246026202  1.0000
  H   H23       1.0  0.9928871982655775  0.7390008535740764  0.22044666418318304  1.0000
  H   H24       1.0  0.9941872419002648  0.976593050971734  0.20484529510673832  1.0000
  H   H25       1.0  0.832799799312979  0.991666703283199  0.8872371806752652  1.0000
  H   H26       1.0  0.82903679969941  0.7532996639447825  0.9056311518450589  1.0000
  H   H27       1.0  0.8661456099814852  0.1919257651145259  0.9942972521806214  1.0000
  H   H28       1.0  0.9178404768447639  0.3864883993644015  0.10978746235337168  1.0000
  H   H29       1.0  0.9688792895753163  0.4089742683403799  0.9589225821101159  1.0000
  H   H30       1.0  0.019051641039670834  0.400649935334886  0.11354564863501039  1.0000
  Zn  Zn1       1.0  0.8239830236117955  0.3809306916665747  0.5880495356722983  1.0000
  Zn  Zn2       1.0  0.9893539864376848  0.3729351144983728  0.5921640259707236  1.0000
  C   C39       1.0  0.9066254798903562  0.37184747340712065  0.8273036352738029  1.0000
  C   C40       1.0  0.9067133362870636  0.3820198840832993  0.3529100988074445  1.0000
  C   C41       1.0  0.906713459058831  0.6141191047950798  0.5849377825875073  1.0000
  C   C42       1.0  0.9066253003850072  0.13974669517524393  0.5952760192899146  1.0000
  O   O3        1.0  0.96946085122481  0.3807345796639842  0.4028577259965323  1.0000
  O   O4        1.0  0.9693906992003383  0.3670633399176187  0.7804784371455588  1.0000
  O   O5        1.0  0.9694608972410822  0.5627007876105263  0.5847662753073324  1.0000
  O   O6        1.0  0.9693905967739503  0.18509714395337837  0.5985697890557081  1.0000
  O   O7        1.0  0.8439463568425377  0.5687686649414785  0.5816437711764091  1.0000
  O   O8        1.0  0.843876159102384  0.3731327774985764  0.7773558638075563  1.0000
  O   O9        1.0  0.8439463114581617  0.3868039714085185  0.3997335912480615  1.0000
  O   O10       1.0  0.8438760569844258  0.19116652644552024  0.5954457516753834  1.0000
