data_image0
_chemical_formula_structural       NC9NC3OCH8C13OH12C12BrH9Zn2C4O8
_chemical_formula_sum              "N2 C42 O10 H29 Br1 Zn2"
_cell_length_a       17.728193572023454
_cell_length_b       10.299150109392551
_cell_length_c       10.299148005577399
_cell_angle_alpha    85.53215182685325
_cell_angle_beta     90.6776520193625
_cell_angle_gamma    88.43520969070386

_space_group_name_H-M_alt    "P 1"
_space_group_IT_number       1

loop_
  _space_group_symop_operation_xyz
  'x, y, z'

loop_
  _atom_site_type_symbol
  _atom_site_label
  _atom_site_symmetry_multiplicity
  _atom_site_fract_x
  _atom_site_fract_y
  _atom_site_fract_z
  _atom_site_occupancy
  N   N1        1.0  0.7107238744197485  0.38723717698743365  0.5846331473837776  1.0000
  C   C1        1.0  0.6501121408998971  0.34980413407579314  0.5976520128610887  1.0000
  C   C2        1.0  0.5746588621989338  0.3032698636149149  0.6138551397055991  1.0000
  C   C3        1.0  0.5627720306029471  0.17521946541158773  0.6233203341270279  1.0000
  C   C4        1.0  0.4860629560117994  0.1257616218795814  0.6382889031363619  1.0000
  C   C5        1.0  0.42790099682715377  0.20843612164194836  0.6557310309047828  1.0000
  C   C6        1.0  0.34985133182657613  0.16338124096028153  0.6774819808990769  1.0000
  C   C7        1.0  0.288510150830711  0.24886227531617666  0.6419889277270532  1.0000
  C   C8        1.0  0.2142342214953037  0.20955332179870734  0.6621516061235102  1.0000
  C   C9        1.0  0.1519145657938893  0.2975716774169599  0.624583219784318  1.0000
  N   N2        1.0  0.10182297205606722  0.3683299073049975  0.5943817885044169  1.0000
  C   C10       1.0  0.2006677401119483  0.08464332170013368  0.7188615187223872  1.0000
  C   C11       1.0  0.2611098403816323  0.9994796657754998  0.7557630954396906  1.0000
  C   C12       1.0  0.3352821547785855  0.038298932060632174  0.7357301771341669  1.0000
  O   O1        1.0  0.4412430982749492  0.34223352312139826  0.6543892810604013  1.0000
  C   C13       1.0  0.5089743037758292  0.39962577157393686  0.6057575255213723  1.0000
  H   H1        1.0  0.6097072953040669  0.10575302002775142  0.6212430459166431  1.0000
  H   H2        1.0  0.4784224200463395  0.022103700920195424  0.6363420379705214  1.0000
  H   H3        1.0  0.2984024579957369  0.34570240618476256  0.5975267059339513  1.0000
  H   H4        1.0  0.14345228085178136  0.05335001198323152  0.7350132723157656  1.0000
  H   H5        1.0  0.25048063849451574  0.9032983922859478  0.8006862487807223  1.0000
  H   H6        1.0  0.38081187468289085  0.9710579266755025  0.768175186519326  1.0000
  H   H7        1.0  0.49952861319572  0.435573230699712  0.5022137708752086  1.0000
  H   H8        1.0  0.5218319156766486  0.48401088336176024  0.6623135041709636  1.0000
  C   C14       1.0  0.906348136843567  0.9963802710048598  0.5896534652130612  1.0000
  C   C15       1.0  0.9049211664967336  0.9846247793965522  0.726435038593539  1.0000
  C   C16       1.0  0.904132070389196  0.8615331057355807  0.7955208578715652  1.0000
  C   C17       1.0  0.9047757662754772  0.7493765177690423  0.7260680022864214  1.0000
  C   C18       1.0  0.9062059604607118  0.7591764345198155  0.5893729122855342  1.0000
  C   C19       1.0  0.9069858633491019  0.8831389114011613  0.5219645310050762  1.0000
  C   C20       1.0  0.9026159420677065  0.8500792091886608  0.9401299636048916  1.0000
  C   C21       1.0  0.8561938867137688  0.7594331002017328  0.006997434308481103  1.0000
  C   C22       1.0  0.8547422096054919  0.7487376129878034  0.14307383507663574  1.0000
  C   C23       1.0  0.9001813135616616  0.8275065716224459  0.21475506184069437  1.0000
  C   C24       1.0  0.9458812042316679  0.9191411321272808  0.1485121919874557  1.0000
  C   C25       1.0  0.9473503989436749  0.9300115695463207  0.012435939141032807  1.0000
  C   C26       1.0  0.897034667551915  0.818444566187127  0.3607697468959912  1.0000
  O   O2        1.0  0.840619941288207  0.9043413131780216  0.39960608115971974  1.0000
  H   H9        1.0  0.9085513290796743  0.2258858503575254  0.3314596148255853  1.0000
  H   H10       1.0  0.9033739888363961  0.07146376110238098  0.7794075355833299  1.0000
  H   H11       1.0  0.9051920790990317  0.6542246281682601  0.7789143709107702  1.0000
  H   H12       1.0  0.9080868795236702  0.8914141922290137  0.41652746461879375  1.0000
  H   H13       1.0  0.9067052699920494  0.43547281375296176  0.5367939204221337  1.0000
  H   H14       1.0  0.8201179494066372  0.6981777211952342  0.9539870592512565  1.0000
  H   H15       1.0  0.8180185864711235  0.6791744525569867  0.19253637515236444  1.0000
  H   H16       1.0  0.9805668800831376  0.98201656011633  0.20223415374282053  1.0000
  H   H17       1.0  0.9840990892584814  1.8808602412879448e-05  0.9637807049734097  1.0000
  H   H18       1.0  0.9525337033086703  0.8435836101172064  0.4023250199552705  1.0000
  H   H19       1.0  0.8847606091481985  0.7170099611941092  0.3982781549293701  1.0000
  H   H20       1.0  0.8408733854638061  0.8946347372537792  0.49624360899762376  1.0000
  C   C27       1.0  0.9063798998846896  0.37782544902944215  0.20812752786025301  1.0000
  C   C28       1.0  0.8353849566919055  0.44204238859556  0.20089877643566556  1.0000
  C   C29       1.0  0.7992827542914738  0.4745536164989939  0.08009275003490579  1.0000
  C   C30       1.0  0.835133104983496  0.44198175315446087  0.9656154902399366  1.0000
  C   C31       1.0  0.9061741836423689  0.3777313138646932  0.9708987913405375  1.0000
  C   C32       1.0  0.9413599915596516  0.3460468259121039  0.09256751798887541  1.0000
  C   C33       1.0  0.7241792116794117  0.5424892944931088  0.07349053241403358  1.0000
  C   C34       1.0  0.7083086275583352  0.6445825545854067  0.15313614786377427  1.0000
  C   C35       1.0  0.6375871012910714  0.7084153888080917  0.1467265082507465  1.0000
  C   C36       1.0  0.5819322550495567  0.6711590003330639  0.06098910096954003  1.0000
  C   C37       1.0  0.5970447379408899  0.5698893194461272  0.981471837712701  1.0000
  C   C38       1.0  0.6677021466303084  0.5058376014076096  0.9874874212748215  1.0000
  Br  Br1       1.0  0.4853710407692094  0.7585045370378178  0.05250192152907207  1.0000
  H   H21       1.0  0.9337030146172696  0.3531767916759759  0.5383798701433873  1.0000
  H   H22       1.0  0.8075338947605337  0.46533684298672723  0.2895360921579555  1.0000
  H   H23       1.0  0.8080264822799368  0.46838919576161625  0.8721142326722595  1.0000
  H   H24       1.0  0.99612125483867  0.29651858366120143  0.09742721833087085  1.0000
  H   H25       1.0  0.040471072763625264  0.25718709717903865  0.7735268300521301  1.0000
  H   H26       1.0  0.7508833580185206  0.6761441731848603  0.21909274689541894  1.0000
  H   H27       1.0  0.6261764878002036  0.7870397121170069  0.20821823112082338  1.0000
  H   H28       1.0  0.5540231862036674  0.5405014633668428  0.9151963183992303  1.0000
  H   H29       1.0  0.6778501220797123  0.42658497156751435  0.9261655699350008  1.0000
  Zn  Zn1       1.0  0.8235866358794176  0.38177747578558036  0.5874538959497195  1.0000
  Zn  Zn2       1.0  0.98896023529981  0.3737790025232067  0.591571681974028  1.0000
  C   C39       1.0  0.9062123587346687  0.37257503893313504  0.8267205795082391  1.0000
  C   C40       1.0  0.9063363179792974  0.38298299078329545  0.35230517025086905  1.0000
  C   C41       1.0  0.9062303455380216  0.6149925879131972  0.5842504288234578  1.0000
  C   C42       1.0  0.9063182750176701  0.14056388408157441  0.594775389346176  1.0000
  O   O3        1.0  0.9690801116781327  0.3816728637426887  0.402255184536579  1.0000
  O   O4        1.0  0.9689833007947422  0.36781353007550055  0.7798954960338553  1.0000
  O   O5        1.0  0.9689969789882302  0.5635688074169232  0.5840991122766548  1.0000
  O   O6        1.0  0.9690663770783665  0.1859175984336765  0.5980514695062995  1.0000
  O   O7        1.0  0.8434804376669695  0.5696388826060117  0.5809741070054177  1.0000
  O   O8        1.0  0.8434667591978635  0.37388516571714825  0.7767704209400623  1.0000
  O   O9        1.0  0.8435635705609767  0.3877444543146109  0.39912854799148206  1.0000
  O   O10       1.0  0.843549835933596  0.19198917970408896  0.5949249303366526  1.0000
