data_image0
_chemical_formula_structural       NC9NC3OCH8C12SCH12C11NCOCH12Zn2C4O8
_chemical_formula_sum              "N3 C43 O10 H32 S1 Zn2"
_cell_length_a       17.728193572023454
_cell_length_b       10.299776766347529
_cell_length_c       10.299158637457992
_cell_angle_alpha    85.5824420436923
_cell_angle_beta     90.68674526026633
_cell_angle_gamma    88.43488659094776

_space_group_name_H-M_alt    "P 1"
_space_group_IT_number       1

loop_
  _space_group_symop_operation_xyz
  'x, y, z'

loop_
  _atom_site_type_symbol
  _atom_site_label
  _atom_site_symmetry_multiplicity
  _atom_site_fract_x
  _atom_site_fract_y
  _atom_site_fract_z
  _atom_site_occupancy
  N   N1        1.0  0.7106046404123185  0.38641248235108017  0.5852162323140686  1.0000
  C   C1        1.0  0.6499940072480165  0.34898925397735564  0.5982203077364627  1.0000
  C   C2        1.0  0.5745420980286511  0.3024671936558268  0.6144050478578327  1.0000
  C   C3        1.0  0.5626560812020077  0.17443303985376815  0.6238209635687069  1.0000
  C   C4        1.0  0.4859482726957391  0.12498706052396134  0.6387700751425094  1.0000
  C   C5        1.0  0.427787768264794  0.2076627106810618  0.6562431361332219  1.0000
  C   C6        1.0  0.3497399390949737  0.1626226478622856  0.677976056621431  1.0000
  C   C7        1.0  0.2883957606508706  0.24807842206129727  0.642516993696016  1.0000
  C   C8        1.0  0.2141215327326518  0.20878298253517835  0.6626638974655441  1.0000
  C   C9        1.0  0.151798704678082  0.29677482329873395  0.6251305486116394  1.0000
  N   N2        1.0  0.1017045606682357  0.36751173776880164  0.5949572840784787  1.0000
  C   C10       1.0  0.20055983888777415  0.08391228833179953  0.7193239598129444  1.0000
  C   C11       1.0  0.2610050550144966  0.9987745598920266  0.7561916147325696  1.0000
  C   C12       1.0  0.3351756789786725  0.03758042054008914  0.7361742790954724  1.0000
  O   O1        1.0  0.4411297372742306  0.3414473626709842  0.6549525561607143  1.0000
  C   C13       1.0  0.5088568444908196  0.3988103960779241  0.6063445516913033  1.0000
  H   H1        1.0  0.6095911813809157  0.1049718432115665  0.6217172124110641  1.0000
  H   H2        1.0  0.47830758818487573  0.0213375414134973  0.636783678706698  1.0000
  H   H3        1.0  0.2982843144065024  0.3448878346944933  0.598093438372906  1.0000
  H   H4        1.0  0.14334574255627253  0.052629786588424876  0.7354631516766887  1.0000
  H   H5        1.0  0.2503796452041038  0.9026241728820218  0.8010763360491682  1.0000
  H   H6        1.0  0.3807081373222641  0.9703615214733498  0.7685923814288849  1.0000
  H   H7        1.0  0.4994024407285719  0.43470344352008317  0.5028184136281955  1.0000
  H   H8        1.0  0.5217192003268596  0.483215831182323  0.6629306506052408  1.0000
  C   C14       1.0  0.9062293822921567  0.9955933648351036  0.5900870284081638  1.0000
  C   C15       1.0  0.9107388284663004  0.983862278619795  0.7267139282391606  1.0000
  C   C16       1.0  0.9129511426691578  0.8607829361175814  0.795947414812767  1.0000
  C   C17       1.0  0.910594525218048  0.748581481403415  0.7267255245103104  1.0000
  C   C18       1.0  0.9060870946808828  0.7583205224312941  0.5900979254965373  1.0000
  C   C19       1.0  0.9039293301428121  0.8822643857116415  0.5225434699976352  1.0000
  C   C20       1.0  0.9177133114086461  0.8494370785956254  0.9404830519593678  1.0000
  C   C21       1.0  0.8745092649678962  0.7580909419899129  0.01345003997745919  1.0000
  C   C22       1.0  0.8790136882260615  0.7476465216304757  0.1494722226005607  1.0000
  C   C23       1.0  0.9265336667388614  0.8282794220772908  0.21432940391815247  1.0000
  C   C24       1.0  0.9699175480022214  0.9190435699143756  0.1427399667782303  1.0000
  C   C25       1.0  0.9655237839890615  0.929832527486677  0.0067101252692352  1.0000
  S   S1        1.0  0.9323966803661573  0.8144132344080776  0.3888666510370479  1.0000
  C   C26       1.0  0.8565601764155673  0.934146969638559  0.40650661813508543  1.0000
  H   H9        1.0  0.9045407678856874  0.3275154883639815  0.5380267170308852  1.0000
  H   H10       1.0  0.9115003555309517  0.07067541311606607  0.7796914942554675  1.0000
  H   H11       1.0  0.9133237742282253  0.6534546440868337  0.7795559628614827  1.0000
  H   H12       1.0  0.9004510001271357  0.8905459067036035  0.4171416389835419  1.0000
  H   H13       1.0  0.9043318819862719  0.43457959197070434  0.538040621155149  1.0000
  H   H14       1.0  0.8365290214166855  0.695945562785483  0.96538970671104  1.0000
  H   H15       1.0  0.8452634972909933  0.6772351389929538  0.20435339084015958  1.0000
  H   H16       1.0  0.007094322714366053  0.9812842200942522  0.19236923073101242  1.0000
  H   H17       1.0  0.00022617440064576113  0.9998294457242478  0.9532657231350036  1.0000
  H   H18       1.0  0.8716764106621847  0.029728738599037234  0.3580052110453019  1.0000
  H   H19       1.0  0.8477961447732751  0.9452874093095621  0.5115681425384134  1.0000
  H   H20       1.0  0.8034655457163635  0.901165370050428  0.3630618988271209  1.0000
  C   C27       1.0  0.9062290035449673  0.3768155607026482  0.20872113350058252  1.0000
  C   C28       1.0  0.907956891852376  0.513433960941581  0.19745320977457356  1.0000
  C   C29       1.0  0.9087736996636103  0.5828440996245411  0.07458111101934328  1.0000
  C   C30       1.0  0.9078123602724046  0.5138008119214608  0.9621381381715427  1.0000
  C   C31       1.0  0.9060874500177016  0.3770983597054597  0.9714638283335613  1.0000
  C   C32       1.0  0.9053096922208377  0.30944612530385207  0.0951435789254853  1.0000
  C   C33       1.0  0.9106024978329073  0.727369559008993  0.06363459147313977  1.0000
  C   C34       1.0  0.9569084136952792  0.7929649574789611  0.14735658911003702  1.0000
  C   C35       1.0  0.914569608674574  0.0020849841400751856  0.04167887592766739  1.0000
  C   C36       1.0  0.8673649197455721  0.936893405237705  0.9597175789019575  1.0000
  C   C37       1.0  0.8656687512970632  0.8009140350248696  0.9698893204122347  1.0000
  N   N3        1.0  0.9142552873513394  0.14214475906119708  0.030438316112970435  1.0000
  C   C38       1.0  0.9788969041212057  0.21800792167793717  0.055281392190313694  1.0000
  O   O2        1.0  0.04397134184065599  0.16545088358773619  0.06541738876717007  1.0000
  C   C39       1.0  0.9700178885621173  0.36225074174074656  0.05966552233808953  1.0000
  H   H21       1.0  0.9076171465439153  0.5662671031816061  0.28439660115713616  1.0000
  H   H22       1.0  0.9094385310501785  0.566735300352453  0.8672080344937614  1.0000
  H   H23       1.0  0.9039795149547374  0.20406903648010855  0.10311995895595795  1.0000
  H   H24       1.0  0.9032899136293933  0.11904211450076274  0.7817847749115913  1.0000
  H   H25       1.0  0.9922381774774406  0.739031047098206  0.22042809394044194  1.0000
  H   H26       1.0  0.9934495481969345  0.9766273697070335  0.20482418769170696  1.0000
  H   H27       1.0  0.8320564799001022  0.9917012837358425  0.8872159122934451  1.0000
  H   H28       1.0  0.8283824423841764  0.7533301057330085  0.9056124289098225  1.0000
  H   H29       1.0  0.8653275509306865  0.19196382257915667  0.9942738452953139  1.0000
  H   H30       1.0  0.9169498041469031  0.3865298349363986  0.10976197779493414  1.0000
  H   H31       1.0  0.9679802248192374  0.40901609432485186  0.9588968574321619  1.0000
  H   H32       1.0  0.018155683047546223  0.4006916167875434  0.11352001284998803  1.0000
  Zn  Zn1       1.0  0.8234676398935955  0.38095466817243717  0.5880347891481088  1.0000
  Zn  Zn2       1.0  0.9888415867869076  0.3729589521804664  0.5921493648287857  1.0000
  C   C40       1.0  0.9061134861632892  0.37187129220496945  0.8272889857464418  1.0000
  C   C41       1.0  0.9061975460661762  0.3820438795003416  0.3528953406521118  1.0000
  C   C42       1.0  0.9061110459827316  0.6141471300510988  0.5849205459176527  1.0000
  C   C43       1.0  0.9061999300944413  0.13976648410707293  0.5952638482937076  1.0000
  O   O3        1.0  0.9689455406985041  0.3807585527648382  0.40284298156656106  1.0000
  O   O4        1.0  0.9688804909825084  0.36708707565061505  0.7804638387064533  1.0000
  O   O5        1.0  0.9688776742399475  0.5627279201124118  0.5847495877175031  1.0000
  O   O6        1.0  0.9689483010264776  0.18511772028555099  0.5985571337763333  1.0000
  O   O7        1.0  0.8433608692200146  0.5687959027973088  0.5816270187896275  1.0000
  O   O8        1.0  0.8433636856808574  0.37315661861260774  0.7773412005548377  1.0000
  O   O9        1.0  0.8434287357452654  0.3868280498896115  0.3997187820049664  1.0000
  O   O10       1.0  0.8434314960538156  0.1911872081577713  0.5954330315829834  1.0000
