data_image0
_chemical_formula_structural       NC9NC3SH6C8H4C6NO2H3Zn2C4O8
_chemical_formula_sum              "N3 C30 S1 H13 O10 Zn2"
_cell_length_a       16.77567553997237
_cell_length_b       9.27514070457351
_cell_length_c       9.273395971720358
_cell_angle_alpha    85.10192813467344
_cell_angle_beta     90.29524247886945
_cell_angle_gamma    91.48491386358626

_space_group_name_H-M_alt    "P 1"
_space_group_IT_number       1

loop_
  _space_group_symop_operation_xyz
  'x, y, z'

loop_
  _atom_site_type_symbol
  _atom_site_label
  _atom_site_symmetry_multiplicity
  _atom_site_fract_x
  _atom_site_fract_y
  _atom_site_fract_z
  _atom_site_occupancy
  N   N1        1.0  0.7616314025729539  0.6154904215417965  0.4194311860258262  1.0000
  C   C1        1.0  0.7071450644357039  0.669786348609434  0.4658155867526104  1.0000
  C   C2        1.0  0.639526702619509  0.7371640092803544  0.5233750806450783  1.0000
  C   C3        1.0  0.6421048336505646  0.833885472572289  0.629291238431785  1.0000
  C   C4        1.0  0.5667054570740947  0.8817967874408282  0.6644451164758713  1.0000
  C   C5        1.0  0.5044450527863092  0.8225972634864442  0.5857943979603419  1.0000
  C   C6        1.0  0.4181069218159799  0.8514159945098356  0.5979316579382534  1.0000
  C   C7        1.0  0.3608554885074056  0.7637096300617059  0.53291057637657  1.0000
  C   C8        1.0  0.2793555617704676  0.7903080188825409  0.5438675060454314  1.0000
  C   C9        1.0  0.22142139109706482  0.6996543910805144  0.47728767614135625  1.0000
  N   N2        1.0  0.1748594054323599  0.6267818622148285  0.42376732902283076  1.0000
  C   C10       1.0  0.2542794372474271  0.9049628148723514  0.6196673209012342  1.0000
  C   C11       1.0  0.3104408014054676  0.992850868169369  0.6841757452294053  1.0000
  C   C12       1.0  0.3917850218262883  0.9666524516860494  0.6735473358117037  1.0000
  S   S1        1.0  0.544504808170656  0.7104010294077878  0.47310585578319797  1.0000
  H   H1        1.0  0.6966540595262602  0.8687370501359294  0.6802594898589838  1.0000
  H   H2        1.0  0.5587818852672347  0.9563488443668758  0.746325527486295  1.0000
  H   H3        1.0  0.3791998907729121  0.6740364916848132  0.47437406646475705  1.0000
  H   H4        1.0  0.1914091714644448  0.9264779370818407  0.6287141168314396  1.0000
  H   H5        1.0  0.2909122466642242  0.08184858812335752  0.7423575823960367  1.0000
  H   H6        1.0  0.4335816458166084  0.03791680624202698  0.7234879923051629  1.0000
  C   C13       1.0  0.9658281960271731  0.19763986665428446  0.42056435030142536  1.0000
  C   C14       1.0  0.9773628330841425  0.282767045108893  0.2890014126718297  1.0000
  C   C15       1.0  0.9958451535915687  0.219273752017517  0.16268533009805264  1.0000
  C   C16       1.0  0.003234301809412089  0.06951719091216768  0.1655072215689135  1.0000
  C   C17       1.0  0.9906811447127559  0.9828059586365937  0.29469356418057147  1.0000
  C   C18       1.0  0.9706701443786022  0.04462142393973467  0.422646772582143  1.0000
  C   C19       1.0  0.02280902757673475  0.004344834626698323  0.0351675312216948  1.0000
  C   C20       1.0  0.039198627817601084  0.9497639525307902  0.9260452724275403  1.0000
  H   H7        1.0  0.9784688024747464  0.2708000028282931  0.7754049495752606  1.0000
  H   H8        1.0  0.005153573769147046  0.2873073750126638  0.06298607709950832  1.0000
  H   H9        1.0  0.9761204622295944  0.7437575294555432  0.6616918368483498  1.0000
  H   H10       1.0  0.053585179777825294  0.9018517038348405  0.8302588444089598  1.0000
  C   C21       1.0  0.9687282572394507  0.6255733896126401  0.9976844838229018  1.0000
  C   C22       1.0  0.8978495211259193  0.6565480794846548  0.06760637505952262  1.0000
  C   C23       1.0  0.8266696434437389  0.6738803823571393  0.9904762756071981  1.0000
  C   C24       1.0  0.8243482303069892  0.66056998771607  0.8411254989820645  1.0000
  C   C25       1.0  0.8951984834671712  0.6320652232652948  0.7697715580632458  1.0000
  C   C26       1.0  0.9677700816767576  0.6166878955719274  0.8455266251134432  1.0000
  N   N3        1.0  0.7505382348509515  0.6773498953352683  0.7622585632945547  1.0000
  O   O1        1.0  0.6814225034912498  0.7064495458313833  0.8323822346541476  1.0000
  O   O2        1.0  0.7479309580806893  0.6653956423780076  0.6292071549152678  1.0000
  H   H11       1.0  0.14227961382485477  0.46877933203750555  0.1155400673059983  1.0000
  H   H12       1.0  0.7731445462567904  0.6963273359838946  0.048354954036956777  1.0000
  H   H13       1.0  0.08613318951541005  0.5153824243355265  0.5750686010714472  1.0000
  Zn  Zn1       1.0  0.8808800494133755  0.6187449495891264  0.42069083901239  1.0000
  Zn  Zn2       1.0  0.05561067297397538  0.6235154452820098  0.42251950221216017  1.0000
  C   C27       1.0  0.967916590899162  0.6126222174436449  0.6852521438484698  1.0000
  C   C28       1.0  0.9685760497833668  0.6296400476637405  0.15795836350757964  1.0000
  C   C29       1.0  0.9697573259537507  0.8845840558427307  0.4165004742582608  1.0000
  C   C30       1.0  0.9667352451132991  0.3576764741709106  0.42671010517797786  1.0000
  O   O3        1.0  0.03483429262822057  0.632808941908918  0.2124416943353764  1.0000
  O   O4        1.0  0.03427484259551283  0.6130729354564801  0.6321563078432944  1.0000
  O   O5        1.0  0.035760363853107886  0.8326855192546371  0.4151374275181099  1.0000
  O   O6        1.0  0.03334871192819855  0.4131963679337311  0.4294604658224484  1.0000
  O   O7        1.0  0.9031419508321833  0.8290640253111186  0.4137498747704791  1.0000
  O   O8        1.0  0.9016564395630986  0.6094531749804188  0.6307686823838523  1.0000
  O   O9        1.0  0.90221589132298  0.6291891493686852  0.21105233313524652  1.0000
  O   O10       1.0  0.9007303104384161  0.40957656394424174  0.42807121282880917  1.0000
