data_image0
_chemical_formula_structural       NC5NC3OH4C9H8C6SCH8Zn2C4O8
_chemical_formula_sum              "N2 C28 O9 H20 S1 Zn2"
_cell_length_a       13.84702359539666
_cell_length_b       9.275152443626249
_cell_length_c       10.302812801239593
_cell_angle_alpha    85.3632325581603
_cell_angle_beta     89.9855797555544
_cell_angle_gamma    90.5743638874884

_space_group_name_H-M_alt    "P 1"
_space_group_IT_number       1

loop_
  _space_group_symop_operation_xyz
  'x, y, z'

loop_
  _atom_site_type_symbol
  _atom_site_label
  _atom_site_symmetry_multiplicity
  _atom_site_fract_x
  _atom_site_fract_y
  _atom_site_fract_z
  _atom_site_occupancy
  N   N1        1.0  0.9199658736855328  0.5788410649636266  0.5627280208120371  1.0000
  C   C1        1.0  0.847763469768377  0.5701686954562102  0.619550787931636  1.0000
  C   C2        1.0  0.7578444189268325  0.5593697637180576  0.6903071057413965  1.0000
  C   C3        1.0  0.6703304278927308  0.5698022167976133  0.6219514239210988  1.0000
  C   C4        1.0  0.5823996889998232  0.5594909759858941  0.6895125491879635  1.0000
  C   C5        1.0  0.49262086932030413  0.5702319968350804  0.6191357677452447  1.0000
  N   N2        1.0  0.4204503221728811  0.5788669529507535  0.5625584460033604  1.0000
  C   C6        1.0  0.5819773795605979  0.5387161643219396  0.8256324408249675  1.0000
  C   C7        1.0  0.6691110765979059  0.5282739865886079  0.8940494259560221  1.0000
  C   C8        1.0  0.75735679781661  0.5385187759800185  0.8269250419461689  1.0000
  O   O1        1.0  0.8442107433020326  0.5280587719417411  0.8954604324946661  1.0000
  H   H1        1.0  0.6706621779320654  0.5858968713356763  0.5164974441973241  1.0000
  H   H2        1.0  0.5143680854377867  0.5306006709907063  0.8788061557021346  1.0000
  H   H3        1.0  0.6680011874332932  0.512211255255937  0.9992948840939662  1.0000
  H   H4        1.0  0.8456417354898705  0.5130255495776734  0.9939596330581331  1.0000
  C   C9        1.0  0.16736386425845406  0.15522156482452187  0.563969644996551  1.0000
  C   C10       1.0  0.13252606749827733  0.23795916275436066  0.453684417618373  1.0000
  C   C11       1.0  0.10666512345074741  0.1725164790806264  0.34133111243639314  1.0000
  C   C12       1.0  0.11523591087296525  0.023174983102534966  0.33703843643575615  1.0000
  C   C13       1.0  0.14818524572476055  0.9387491406838532  0.44639215096849405  1.0000
  C   C14       1.0  0.1730614871682028  0.0024753781118447365  0.5613280130465865  1.0000
  C   C15       1.0  0.08907160287763838  0.9560241206052119  0.22068931397609662  1.0000
  C   C16       1.0  0.06716510892012349  0.8997676330440612  0.12326516548321953  1.0000
  C   C17       1.0  0.04058590864532951  0.8314983362318504  0.005058047390988698  1.0000
  H   H5        1.0  0.3061303350898825  0.23688018962006807  0.823208449147516  1.0000
  H   H6        1.0  0.127438922970885  0.3544763856637603  0.4532777577875947  1.0000
  H   H7        1.0  0.08084505496251437  0.23875490801232324  0.2572553147792296  1.0000
  H   H8        1.0  0.15225127502001712  0.8224393209980402  0.44276899390941094  1.0000
  H   H9        1.0  0.26339298258364563  0.7071806505237949  0.7386402035221946  1.0000
  H   H10       1.0  0.05824040242793859  0.714777420112487  0.01718098874504271  1.0000
  H   H11       1.0  0.9619843683870194  0.8440768367441759  0.9873110432374484  1.0000
  H   H12       1.0  0.08136922360298615  0.8838489783191269  0.9210070858044208  1.0000
  C   C18       1.0  0.17021270082925313  0.5788484625786894  0.18140038504789557  1.0000
  C   C19       1.0  0.13861162502654256  0.7227095266827683  0.16976560142537991  1.0000
  C   C20       1.0  0.12263752525417537  0.7940774621944304  0.04700166296332697  1.0000
  C   C21       1.0  0.1386115369459997  0.7227093752431974  0.9346144322377876  1.0000
  C   C22       1.0  0.170212638123735  0.5788484528536206  0.9438972887289736  1.0000
  C   C23       1.0  0.18582891590530065  0.5076083339257806  0.06782810200800449  1.0000
  S   S1        1.0  0.08246153447303217  0.9779880676111533  0.03363096075726136  1.0000
  C   C24       1.0  0.9550930673580397  0.927578861352442  0.03734329414940629  1.0000
  H   H13       1.0  0.18208560883015767  0.5246157050135587  0.5130994063259511  1.0000
  H   H14       1.0  0.12605836179044427  0.7798515517616513  0.2557108752574453  1.0000
  H   H15       1.0  0.12605816704630612  0.7798513439428989  0.840360562988788  1.0000
  H   H16       1.0  0.21018664995447733  0.3966323541938519  0.07589614316793038  1.0000
  H   H17       1.0  0.1820838056403078  0.5246149559612514  0.6200838237564215  1.0000
  H   H18       1.0  0.9375368906584821  0.8634015899293804  0.9539028670838389  1.0000
  H   H19       1.0  0.937537314075572  0.8634030478793963  0.13013755443157193  1.0000
  H   H20       1.0  0.9110669297256456  0.02714950610817458  0.030111484227840497  1.0000
  Zn  Zn1       1.0  0.06439484676186447  0.5788446737104471  0.5626865832509311  1.0000
  Zn  Zn2       1.0  0.2760212456561544  0.5788515402668379  0.5626105158008933  1.0000
  C   C25       1.0  0.17017185032496007  0.5731014201260942  0.7997869793394895  1.0000
  C   C26       1.0  0.17024656528731466  0.5845966141385037  0.3255102406327466  1.0000
  C   C27       1.0  0.17197953846786418  0.8423263441182304  0.5566538287041243  1.0000
  C   C28       1.0  0.16843879327556865  0.31536995692782854  0.5686434659147148  1.0000
  O   O2        1.0  0.2505690036655597  0.5865220585122666  0.373845977048439  1.0000
  O   O3        1.0  0.25046894468738645  0.5711800990138545  0.7513931391544718  1.0000
  O   O4        1.0  0.2519275930917648  0.7885826299162155  0.5550613955214209  1.0000
  O   O5        1.0  0.2491102831168328  0.3691195379273342  0.5701776233313589  1.0000
  O   O6        1.0  0.09130573708349266  0.7885766760491779  0.5551194757395899  1.0000
  O   O7        1.0  0.08984710033026344  0.5711758783645827  0.7514511447451616  1.0000
  O   O8        1.0  0.08994715903471984  0.5865177875917753  0.37390242188832223  1.0000
  O   O9        1.0  0.08848843841264854  0.36911525668864154  0.5702341655404979  1.0000
