data_image0
_chemical_formula_structural       NC9NC3SH6C6NCOCH7C8NH7Zn2C4O8
_chemical_formula_sum              "N4 C32 S1 H20 O9 Zn2"
_cell_length_a       16.77567553997237
_cell_length_b       10.300268703208216
_cell_length_c       9.274266800404106
_cell_angle_alpha    85.98590923950522
_cell_angle_beta     89.94189520236782
_cell_angle_gamma    90.87327597949842

_space_group_name_H-M_alt    "P 1"
_space_group_IT_number       1

loop_
  _space_group_symop_operation_xyz
  'x, y, z'

loop_
  _atom_site_type_symbol
  _atom_site_label
  _atom_site_symmetry_multiplicity
  _atom_site_fract_x
  _atom_site_fract_y
  _atom_site_fract_z
  _atom_site_occupancy
  N   N1        1.0  0.7572500639566486  0.42930443624537573  0.4178410658609098  1.0000
  C   C1        1.0  0.7022922488299498  0.47893754873744143  0.46402170575187696  1.0000
  C   C2        1.0  0.6340888167785935  0.5405289566043123  0.521328346632709  1.0000
  C   C3        1.0  0.6357511904677378  0.6293174373185324  0.6268463500748205  1.0000
  C   C4        1.0  0.559954598121684  0.6730216572633632  0.6618291530730402  1.0000
  C   C5        1.0  0.4982997349989015  0.6184560579222491  0.5834430118050296  1.0000
  C   C6        1.0  0.41175202837697  0.644599843876549  0.5954909773977264  1.0000
  C   C7        1.0  0.355229915554527  0.564584266103836  0.5307840752898967  1.0000
  C   C8        1.0  0.2735373589237701  0.588709871186607  0.541658960696062  1.0000
  C   C9        1.0  0.21635497628554118  0.5060155057025049  0.4754029218935388  1.0000
  N   N2        1.0  0.1703973195243169  0.4395410881865107  0.42214285598224577  1.0000
  C   C10       1.0  0.24753779940548284  0.693163387130084  0.6170619591243212  1.0000
  C   C11       1.0  0.30297044151297103  0.7733343465798546  0.6812565310665406  1.0000
  C   C12       1.0  0.38450386159735267  0.7495741539870077  0.6707086847995563  1.0000
  S   S1        1.0  0.5393886144215123  0.5156250817823225  0.4712009575920127  1.0000
  H   H1        1.0  0.6899287243539015  0.6615157342513428  0.6776517934018342  1.0000
  H   H2        1.0  0.5513243827907341  0.741462905877608  0.7434023058917985  1.0000
  H   H3        1.0  0.37429411350122843  0.48290167512439997  0.4725567917782292  1.0000
  H   H4        1.0  0.1845111184921328  0.7126812506596519  0.6260421126686384  1.0000
  H   H5        1.0  0.2827272316494589  0.8544030859090372  0.7391313406742773  1.0000
  H   H6        1.0  0.4257173085142738  0.8145431500812866  0.7203984274289683  1.0000
  C   C13       1.0  0.9639084595014848  0.05307728638971132  0.42000137911800417  1.0000
  C   C14       1.0  0.9779974820461204  0.06180754448704318  0.27030439043523047  1.0000
  C   C15       1.0  0.9861830926732783  0.9489353210267891  0.19519121439319598  1.0000
  C   C16       1.0  0.9778169815140851  0.8266437944864308  0.2703384723441651  1.0000
  C   C17       1.0  0.9637464864651389  0.8157585627469914  0.4199951070573633  1.0000
  C   C18       1.0  0.9571662395043872  0.9295825945661671  0.49412716353603425  1.0000
  N   N3        1.0  0.9993680933055352  0.9562501693622405  0.04155271741224876  1.0000
  C   C19       1.0  0.04650413163047862  0.0560062912328585  0.9645879060811606  1.0000
  O   O1        1.0  0.09122924610106597  0.1305563012575679  0.0316189954601509  1.0000
  C   C20       1.0  0.047236762419930814  0.06582747898602515  0.803116857547912  1.0000
  H   H7        1.0  0.9810279135475297  0.156338592162248  0.21169371283124638  1.0000
  H   H8        1.0  0.9830213364300276  0.7400147915170338  0.21138673739549985  1.0000
  H   H9        1.0  0.946321496805951  0.9220404724473843  0.609590470190414  1.0000
  H   H10       1.0  0.9776606990707779  0.8798998580831007  0.9834076135908286  1.0000
  H   H11       1.0  0.9863999002086591  0.04701096793280236  0.7616153627467975  1.0000
  H   H12       1.0  0.06718301662710457  0.16469974257632106  0.7612921270785522  1.0000
  H   H13       1.0  0.08855631449442923  0.992859637998168  0.763866230678496  1.0000
  C   C21       1.0  0.9656616055625773  0.43162401756313873  0.9967066394457857  1.0000
  C   C22       1.0  0.9193549531451172  0.337513487740265  0.07737451802932417  1.0000
  C   C23       1.0  0.8682221770272881  0.2533829970131851  0.008945581450621635  1.0000
  C   C24       1.0  0.8616913789608205  0.26204762953050237  0.8581796650718992  1.0000
  C   C25       1.0  0.909093095602151  0.35308064289368307  0.7762169561222367  1.0000
  C   C26       1.0  0.9619933307714015  0.43721180599212106  0.8432898250091028  1.0000
  C   C27       1.0  0.8074119725166844  0.1700013976662809  0.7845332351713621  1.0000
  C   C28       1.0  0.8506063535260799  0.052349095056011055  0.7537686129533943  1.0000
  N   N4        1.0  0.8847025444052116  0.9594944126941608  0.7294854720645501  1.0000
  H   H14       1.0  0.05341923545857763  0.7196059489502726  0.07705397116170465  1.0000
  H   H15       1.0  0.9213917032719147  0.3308383680812428  0.1944097887054215  1.0000
  H   H16       1.0  0.8330561971491859  0.18211071173629212  0.0738238182197497  1.0000
  H   H17       1.0  0.9059878980445906  0.3559667347438064  0.6592936101473197  1.0000
  H   H18       1.0  0.0239748372911035  0.6286504397522338  0.5475940727319593  1.0000
  H   H19       1.0  0.7846630464064331  0.2169876379007168  0.6815270439387429  1.0000
  H   H20       1.0  0.7551327922607388  0.1420239660476308  0.8541506138015422  1.0000
  Zn  Zn1       1.0  0.8764754049453823  0.4322551007365295  0.4190908024533236  1.0000
  Zn  Zn2       1.0  0.051171924528171646  0.43657990812309194  0.42090495697440433  1.0000
  C   C29       1.0  0.9626860509827646  0.4309821903553424  0.6832675291432055  1.0000
  C   C30       1.0  0.9649631852103756  0.4378545051843413  0.15672839156003282  1.0000
  C   C31       1.0  0.9637978994779279  0.6715575339142882  0.41425220020155007  1.0000
  C   C32       1.0  0.9638512771018282  0.19727760044961506  0.4257437967452594  1.0000
  O   O2        1.0  0.031025208906209967  0.44158109021518716  0.2111216156190121  1.0000
  O   O3        1.0  0.029214645453943255  0.4305370516602287  0.6302507914553199  1.0000
  O   O4        1.0  0.0301115769731799  0.6248046718426694  0.4130190007148385  1.0000
  O   O5        1.0  0.03012821824121859  0.2473134771332737  0.42835329766160785  1.0000
  O   O6        1.0  0.8975190516170198  0.6215215302518666  0.41164246113945646  1.0000
  O   O7        1.0  0.8966221200958512  0.42725546977072526  0.6288741750097022  1.0000
  O   O8        1.0  0.8984326911200271  0.4382994516350263  0.20974326613371752  1.0000
  O   O9        1.0  0.8975356999854744  0.24403182997810502  0.4269750562475354  1.0000
