data_image0
_chemical_formula_structural       NC9NC3OH6C6NCH9C6OCH7Zn2C4O8
_chemical_formula_sum              "N3 C30 O10 H22 Zn2"
_cell_length_a       15.78231758774541
_cell_length_b       9.273386996610926
_cell_length_c       9.273891588657152
_cell_angle_alpha    85.97842517681073
_cell_angle_beta     89.76748324947235
_cell_angle_gamma    89.03191128213776

_space_group_name_H-M_alt    "P 1"
_space_group_IT_number       1

loop_
  _space_group_symop_operation_xyz
  'x, y, z'

loop_
  _atom_site_type_symbol
  _atom_site_label
  _atom_site_symmetry_multiplicity
  _atom_site_fract_x
  _atom_site_fract_y
  _atom_site_fract_z
  _atom_site_occupancy
  N   N1        1.0  0.7935041150966282  0.5556683984536606  0.4101825466046203  1.0000
  C   C1        1.0  0.7454441184652122  0.4647432845610169  0.43706036265773  1.0000
  C   C2        1.0  0.6857757071490729  0.3518831203982409  0.4704226544762287  1.0000
  C   C3        1.0  0.7061745946559493  0.2101117682426306  0.51224293613335  1.0000
  C   C4        1.0  0.6298005787952808  0.1414045711866363  0.53259342253828  1.0000
  C   C5        1.0  0.5674748269475497  0.24633201263938845  0.5016874428471183  1.0000
  C   C6        1.0  0.47448428661681036  0.22693345553447639  0.5075033331864192  1.0000
  C   C7        1.0  0.42012185722010453  0.34588020200344105  0.4722843702691901  1.0000
  C   C8        1.0  0.3319977042685623  0.32997392228177724  0.47706120823978987  1.0000
  C   C9        1.0  0.27692084652151927  0.4523814030852247  0.44080837900008835  1.0000
  N   N2        1.0  0.23265203438065932  0.5507812119860922  0.41166435256044087  1.0000
  C   C10       1.0  0.2975556047786405  0.19494388098615437  0.5171116827140569  1.0000
  C   C11       1.0  0.3509858092743128  0.07624309740358459  0.5522626671524882  1.0000
  C   C12       1.0  0.4389265664958339  0.09171239331175364  0.5476156449665395  1.0000
  O   O1        1.0  0.6032875967548068  0.37068368953544484  0.46495167429238626  1.0000
  H   H1        1.0  0.7688834963031486  0.16230087078155964  0.5262897997008857  1.0000
  H   H2        1.0  0.6216551151687303  0.028430836429018225  0.5659358049558434  1.0000
  H   H3        1.0  0.44618217283685546  0.4509574694252467  0.4411127593192852  1.0000
  H   H4        1.0  0.2295090533840215  0.1814720673021737  0.5211550604868436  1.0000
  H   H5        1.0  0.3241914494421448  0.9718841969757783  0.5832216429214439  1.0000
  H   H6        1.0  0.47850091237303816  0.997693096399647  0.5754668562712044  1.0000
  C   C13       1.0  0.015685510121234095  0.12954820360606933  0.4116405285625375  1.0000
  C   C14       1.0  0.030998844405399024  0.2116769602315323  0.28136662140234936  1.0000
  C   C15       1.0  0.0383337201519198  0.1459159457960164  0.15105773688702184  1.0000
  C   C16       1.0  0.030470756272655594  0.9956726331453833  0.14769082098340536  1.0000
  C   C17       1.0  0.016652225737519236  0.9125602402090384  0.2775170501037574  1.0000
  C   C18       1.0  0.010478733237112351  0.9768903307220086  0.4102188903773618  1.0000
  N   N3        1.0  0.03709827458112258  0.9248587761076702  0.014688682884040237  1.0000
  C   C19       1.0  0.0516835753107956  0.0013232799015874166  0.8740817011886342  1.0000
  H   H7        1.0  0.032208290994239386  0.39364515087713864  0.6483363382272895  1.0000
  H   H8        1.0  0.03532675567784179  0.3282587266975061  0.279612864843765  1.0000
  H   H9        1.0  0.049346437032848245  0.21351171811485223  0.05318786066198866  1.0000
  H   H10       1.0  0.012660162624336556  0.7961830718105048  0.27522974410217604  1.0000
  H   H11       1.0  0.04050755285473407  0.8483631909058966  0.7613848122170745  1.0000
  H   H12       1.0  0.031097507434213023  0.8125854149072851  0.0176573489211409  1.0000
  H   H13       1.0  0.9992361700631486  0.08025445270714335  0.8488612484560889  1.0000
  H   H14       1.0  0.1130156635535371  0.05819457847413489  0.8745212392544199  1.0000
  H   H15       1.0  0.05410430219271989  0.9230894819275818  0.7887591567652197  1.0000
  C   C20       1.0  0.014493788708842327  0.5493827799258326  0.9876654583055053  1.0000
  C   C21       1.0  0.08351357338714055  0.6095493068754712  0.056371069534953966  1.0000
  C   C22       1.0  0.1476606282243346  0.6805427075267205  0.9766589408215935  1.0000
  C   C23       1.0  0.14301663531171271  0.691728530876338  0.8251842067836597  1.0000
  C   C24       1.0  0.07578246739571945  0.6306686026819035  0.7551438703808566  1.0000
  C   C25       1.0  0.011670453626636993  0.557055718955948  0.8341939090056893  1.0000
  O   O2        1.0  0.21437718788279791  0.7389586227144165  0.051992631669158344  1.0000
  C   C26       1.0  0.2836896932201838  0.8141116252718825  0.9850243186507668  1.0000
  H   H16       1.0  0.8134837541989296  0.46301249217562007  0.09815127609565288  1.0000
  H   H17       1.0  0.19149125419692176  0.7462782722093808  0.7603343442039843  1.0000
  H   H18       1.0  0.07505304603868268  0.6381119874882721  0.638047911432392  1.0000
  H   H19       1.0  0.8776620604364828  0.4931725130687885  0.5584074194520361  1.0000
  H   H20       1.0  0.2603436934562058  0.9119974501003787  0.9203881816749035  1.0000
  H   H21       1.0  0.3194616319174346  0.7421145399618867  0.9148510066728656  1.0000
  H   H22       1.0  0.3268540684864796  0.8481145615104775  0.06995636637765723  1.0000
  Zn  Zn1       1.0  0.9202327107832037  0.5542542835782815  0.410618486922677  1.0000
  Zn  Zn2       1.0  0.1059234432618063  0.5521836583218027  0.41124021457496207  1.0000
  C   C27       1.0  0.012237565977619927  0.549857804863022  0.6741915608265421  1.0000
  C   C28       1.0  0.013920604146559377  0.556581936110361  0.14766728587537314  1.0000
  C   C29       1.0  0.011477733753453952  0.816672633054343  0.4047438816459728  1.0000
  C   C30       1.0  0.014680383402566827  0.28976537592516327  0.4171150445969223  1.0000
  O   O3        1.0  0.08419694208876138  0.558205952918821  0.20160131380695812  1.0000
  O   O4        1.0  0.0828962054674851  0.5466611392256742  0.6207289967084404  1.0000
  O   O5        1.0  0.08228167638725781  0.7621175115016217  0.40314808368547417  1.0000
  O   O6        1.0  0.08481140810233812  0.3427495906907143  0.41918211852868215  1.0000
  O   O7        1.0  0.9413446825755536  0.7636883519174746  0.4026765827492076  1.0000
  O   O8        1.0  0.9419592012568209  0.5482337123435083  0.620257416011444  1.0000
  O   O9        1.0  0.9432599440230061  0.5597784600521452  0.20112800026598254  1.0000
  O   O10       1.0  0.9438744097361151  0.34432208848430235  0.41870891306919966  1.0000
