data_image0
_chemical_formula_structural       Tb4P4H50C86O32
_chemical_formula_sum              "Tb4 P4 H50 C86 O32"
_cell_length_a       10.5573
_cell_length_b       14.4794
_cell_length_c       23.316
_cell_angle_alpha    107.31599999999999
_cell_angle_beta     90.0
_cell_angle_gamma    90.0

_space_group_name_H-M_alt    "P 1"
_space_group_IT_number       1

loop_
  _space_group_symop_operation_xyz
  'x, y, z'

loop_
  _atom_site_type_symbol
  _atom_site_label
  _atom_site_symmetry_multiplicity
  _atom_site_fract_x
  _atom_site_fract_y
  _atom_site_fract_z
  _atom_site_occupancy
  Tb  Tb1       1.0  0.04805000000000001  0.42590999999999984  0.7699700000000003  1.0000
  Tb  Tb2       1.0  0.04805000000000001  0.07409000000000006  0.7300300000000001  1.0000
  Tb  Tb3       1.0  0.9519500000000001  0.57409  0.23003  1.0000
  Tb  Tb4       1.0  0.9519500000000001  0.92591  0.26997  1.0000
  P   P1        1.0  0.83973  0.59847  0.87798  1.0000
  P   P2        1.0  0.83973  0.9015300000000002  0.62202  1.0000
  P   P3        1.0  0.16027  0.40153  0.12202  1.0000
  P   P4        1.0  0.16027  0.09846999999999997  0.37798000000000004  1.0000
  H   H1        1.0  0.7032  0.75  0.8462  1.0000
  H   H2        1.0  0.7156  0.4627  0.7849  1.0000
  H   H3        1.0  0.8607  0.7821999999999996  0.9678  1.0000
  H   H4        1.0  0.8820000000000001  0.8333  0.0702  1.0000
  H   H5        1.0  0.8505  0.5080999999999999  0.9705000000000003  1.0000
  H   H6        1.0  0.5105000000000001  0.42169999999999985  0.7573000000000001  1.0000
  H   H7        1.0  0.38780000000000003  0.6205  0.9059  1.0000
  H   H8        1.0  0.595  0.6627999999999996  0.9331000000000002  1.0000
  H   H9        1.0  0.067  0.6794  0.8518000000000001  1.0000
  H   H10       1.0  0.1249  0.8098999999999995  0.8224  1.0000
  H   H11       1.0  0.7608  0.8812  0.8151  1.0000
  H   H12       1.0  0.8761  0.5603  0.0735  1.0000
  H   H13       1.0  0.7032  0.75  0.6538  1.0000
  H   H14       1.0  0.7156  0.03730000000000003  0.7151  1.0000
  H   H15       1.0  0.8607  0.7178  0.5322  1.0000
  H   H16       1.0  0.8820000000000001  0.6667  0.42980000000000007  1.0000
  H   H17       1.0  0.8505  0.9918999999999996  0.5295  1.0000
  H   H18       1.0  0.5105000000000001  0.07830000000000005  0.7427000000000001  1.0000
  H   H19       1.0  0.38780000000000003  0.8794999999999995  0.5941  1.0000
  H   H20       1.0  0.595  0.8371999999999998  0.5669  1.0000
  H   H21       1.0  0.067  0.8205999999999996  0.6482000000000001  1.0000
  H   H22       1.0  0.1249  0.6900999999999997  0.6776  1.0000
  H   H23       1.0  0.7608  0.6188  0.6849  1.0000
  H   H24       1.0  0.8761  0.9397  0.4265  1.0000
  H   H25       1.0  0.2968  0.25  0.1538  1.0000
  H   H26       1.0  0.2844  0.5372999999999999  0.2151  1.0000
  H   H27       1.0  0.1393  0.21779999999999988  0.0322  1.0000
  H   H28       1.0  0.11800000000000002  0.16669999999999993  0.9298  1.0000
  H   H29       1.0  0.1495  0.4919  0.0295  1.0000
  H   H30       1.0  0.48950000000000005  0.5783  0.2427  1.0000
  H   H31       1.0  0.6122000000000001  0.3795  0.0941  1.0000
  H   H32       1.0  0.405  0.3372  0.0669  1.0000
  H   H33       1.0  0.9330000000000002  0.3206  0.1482  1.0000
  H   H34       1.0  0.8751  0.19009999999999994  0.1776  1.0000
  H   H35       1.0  0.23920000000000002  0.11879999999999995  0.1849  1.0000
  H   H36       1.0  0.1239  0.43969999999999976  0.9265  1.0000
  H   H37       1.0  0.2968  0.25  0.3462  1.0000
  H   H38       1.0  0.2844  0.9626999999999997  0.28490000000000004  1.0000
  H   H39       1.0  0.1393  0.2822  0.4678  1.0000
  H   H40       1.0  0.11800000000000002  0.3333  0.5702  1.0000
  H   H41       1.0  0.1495  0.008100000000000003  0.4705  1.0000
  H   H42       1.0  0.48950000000000005  0.9217  0.2573  1.0000
  H   H43       1.0  0.6122000000000001  0.12049999999999997  0.40590000000000004  1.0000
  H   H44       1.0  0.405  0.16280000000000003  0.4331  1.0000
  H   H45       1.0  0.9330000000000002  0.1793999999999999  0.3518  1.0000
  H   H46       1.0  0.8751  0.3098999999999999  0.3224  1.0000
  H   H47       1.0  0.23920000000000002  0.38119999999999993  0.31510000000000005  1.0000
  H   H48       1.0  0.1239  0.06029999999999999  0.5735  1.0000
  H   H49       1.0  0.7321000000000001  0.25000000000000006  0.7500000000000001  1.0000
  H   H50       1.0  0.2679000000000001  0.75  0.25  1.0000
  C   C1        1.0  0.8784  0.7001  0.8521  1.0000
  C   C2        1.0  0.7884000000000001  0.7615  0.841  1.0000
  C   C3        1.0  0.678  0.5678999999999997  0.8616000000000001  1.0000
  C   C4        1.0  0.6499000000000001  0.49509999999999976  0.8093  1.0000
  C   C5        1.0  0.8555  0.6397000000000002  0.9582000000000002  1.0000
  C   C6        1.0  0.8640000000000001  0.7369  0.9888  1.0000
  C   C7        1.0  0.8772  0.7673999999999995  0.05020000000000001  1.0000
  C   C8        1.0  0.8585000000000002  0.5739  0.9903  1.0000
  C   C9        1.0  0.5271  0.4701999999999998  0.7929  1.0000
  C   C10       1.0  0.42610000000000003  0.5167  0.8291  1.0000
  C   C11       1.0  0.4534  0.5886  0.8813000000000002  1.0000
  C   C12       1.0  0.5781  0.6141999999999995  0.8977000000000002  1.0000
  C   C13       1.0  0.2934  0.4866999999999998  0.8091000000000002  1.0000
  C   C14       1.0  0.0048000000000000004  0.7198999999999999  0.8444  1.0000
  C   C15       1.0  0.03960000000000001  0.7971999999999997  0.8263  1.0000
  C   C16       1.0  0.9488  0.8568999999999996  0.8137000000000001  1.0000
  C   C17       1.0  0.8226  0.8400999999999997  0.8221000000000002  1.0000
  C   C18       1.0  0.9847  0.9394999999999996  0.7899  1.0000
  C   C19       1.0  0.8732  0.6051999999999995  0.05220000000000002  1.0000
  C   C20       1.0  0.8835000000000001  0.7025  0.0825  1.0000
  C   C21       1.0  0.9004  0.7381  0.1495  1.0000
  C   C22       1.0  0.8784  0.7999  0.6479  1.0000
  C   C23       1.0  0.7884000000000001  0.7385000000000002  0.6590000000000001  1.0000
  C   C24       1.0  0.678  0.9320999999999996  0.6384  1.0000
  C   C25       1.0  0.6499000000000001  0.004899999999999893  0.6907  1.0000
  C   C26       1.0  0.8555  0.8602999999999995  0.5418  1.0000
  C   C27       1.0  0.8640000000000001  0.7631  0.5112  1.0000
  C   C28       1.0  0.8772  0.7325999999999997  0.4498  1.0000
  C   C29       1.0  0.8585000000000002  0.9261  0.5097  1.0000
  C   C30       1.0  0.5271  0.02979999999999998  0.7071  1.0000
  C   C31       1.0  0.42610000000000003  0.9832999999999995  0.6709  1.0000
  C   C32       1.0  0.4534  0.9114  0.6187  1.0000
  C   C33       1.0  0.5781  0.8857999999999999  0.6023  1.0000
  C   C34       1.0  0.2934  0.01329999999999998  0.6909  1.0000
  C   C35       1.0  0.0048000000000000004  0.7800999999999996  0.6556  1.0000
  C   C36       1.0  0.03960000000000001  0.7027999999999996  0.6737  1.0000
  C   C37       1.0  0.9488  0.6430999999999998  0.6863  1.0000
  C   C38       1.0  0.8226  0.6598999999999996  0.6779  1.0000
  C   C39       1.0  0.9847  0.5604999999999999  0.7101  1.0000
  C   C40       1.0  0.8732  0.8947999999999998  0.4478  1.0000
  C   C41       1.0  0.8835000000000001  0.7975  0.4175  1.0000
  C   C42       1.0  0.9004  0.7619  0.3505  1.0000
  C   C43       1.0  0.12160000000000003  0.29989999999999983  0.1479  1.0000
  C   C44       1.0  0.2116  0.2385  0.159  1.0000
  C   C45       1.0  0.322  0.4320999999999999  0.1384  1.0000
  C   C46       1.0  0.3501  0.5049  0.1907  1.0000
  C   C47       1.0  0.1445  0.3603  0.0418  1.0000
  C   C48       1.0  0.136  0.2631  0.0112  1.0000
  C   C49       1.0  0.12280000000000002  0.23259999999999995  0.9498000000000001  1.0000
  C   C50       1.0  0.1415  0.4261  0.009700000000000004  1.0000
  C   C51       1.0  0.47290000000000004  0.5298  0.2071  1.0000
  C   C52       1.0  0.5739000000000001  0.4833  0.1709  1.0000
  C   C53       1.0  0.5466000000000001  0.4114  0.11870000000000001  1.0000
  C   C54       1.0  0.42190000000000005  0.38580000000000003  0.10230000000000002  1.0000
  C   C55       1.0  0.7066  0.5133  0.1909  1.0000
  C   C56       1.0  0.9952000000000001  0.2800999999999998  0.1556  1.0000
  C   C57       1.0  0.9604  0.2027999999999999  0.1737  1.0000
  C   C58       1.0  0.0512  0.14309999999999995  0.1863  1.0000
  C   C59       1.0  0.1774  0.1599  0.1779  1.0000
  C   C60       1.0  0.015300000000000001  0.0605  0.2101  1.0000
  C   C61       1.0  0.1268  0.39480000000000004  0.9478000000000001  1.0000
  C   C62       1.0  0.11650000000000002  0.29749999999999976  0.9175000000000001  1.0000
  C   C63       1.0  0.09960000000000002  0.26189999999999997  0.8505000000000001  1.0000
  C   C64       1.0  0.12160000000000003  0.20009999999999997  0.3521  1.0000
  C   C65       1.0  0.2116  0.26149999999999995  0.341  1.0000
  C   C66       1.0  0.322  0.06789999999999997  0.36160000000000003  1.0000
  C   C67       1.0  0.3501  0.9950999999999995  0.3093000000000001  1.0000
  C   C68       1.0  0.1445  0.13970000000000002  0.4582  1.0000
  C   C69       1.0  0.136  0.23689999999999992  0.4888  1.0000
  C   C70       1.0  0.12280000000000002  0.2674  0.5502  1.0000
  C   C71       1.0  0.1415  0.0739  0.4903  1.0000
  C   C72       1.0  0.47290000000000004  0.9701999999999992  0.2929  1.0000
  C   C73       1.0  0.5739000000000001  0.016699999999999975  0.3291  1.0000
  C   C74       1.0  0.5466000000000001  0.08859999999999996  0.38130000000000003  1.0000
  C   C75       1.0  0.42190000000000005  0.11419999999999998  0.39770000000000005  1.0000
  C   C76       1.0  0.7066  0.9867  0.3091  1.0000
  C   C77       1.0  0.9952000000000001  0.2199  0.3444  1.0000
  C   C78       1.0  0.9604  0.29719999999999996  0.3263  1.0000
  C   C79       1.0  0.0512  0.3568999999999999  0.3137  1.0000
  C   C80       1.0  0.1774  0.3401  0.3221  1.0000
  C   C81       1.0  0.015300000000000001  0.4394999999999998  0.2899  1.0000
  C   C82       1.0  0.1268  0.1052  0.5522  1.0000
  C   C83       1.0  0.11650000000000002  0.2025  0.5825  1.0000
  C   C84       1.0  0.09960000000000002  0.23809999999999998  0.6495  1.0000
  C   C85       1.0  0.8202  0.25000000000000006  0.7500000000000001  1.0000
  C   C86       1.0  0.1798  0.75  0.25  1.0000
  O   O1        1.0  0.9248  0.5139  0.8505100000000001  1.0000
  O   O2        1.0  0.2027  0.53  0.84134  1.0000
  O   O3        1.0  0.2753  0.41939999999999994  0.7617200000000001  1.0000
  O   O4        1.0  0.09930000000000001  0.9495999999999999  0.77801  1.0000
  O   O5        1.0  0.9017  0.9936999999999998  0.7793800000000001  1.0000
  O   O6        1.0  0.901  0.6778999999999996  0.17739  1.0000
  O   O7        1.0  0.9108000000000002  0.8269999999999997  0.17287  1.0000
  O   O8        1.0  0.8672  0.32669999999999977  0.75183  1.0000
  O   O9        1.0  0.9248  0.9860999999999999  0.64949  1.0000
  O   O10       1.0  0.2027  0.9699999999999999  0.65866  1.0000
  O   O11       1.0  0.2753  0.08059999999999999  0.73828  1.0000
  O   O12       1.0  0.09930000000000001  0.5503999999999999  0.7219900000000001  1.0000
  O   O13       1.0  0.9017  0.5063  0.72062  1.0000
  O   O14       1.0  0.901  0.8220999999999996  0.32261  1.0000
  O   O15       1.0  0.9108000000000002  0.6729999999999996  0.32713  1.0000
  O   O16       1.0  0.8672  0.17329999999999984  0.74817  1.0000
  O   O17       1.0  0.0752  0.48609999999999975  0.14949  1.0000
  O   O18       1.0  0.7973000000000001  0.4699999999999999  0.15866  1.0000
  O   O19       1.0  0.7247  0.5805999999999997  0.23828  1.0000
  O   O20       1.0  0.9007  0.050400000000000014  0.22199000000000002  1.0000
  O   O21       1.0  0.0983  0.006300000000000004  0.22062  1.0000
  O   O22       1.0  0.099  0.3221  0.82261  1.0000
  O   O23       1.0  0.0892  0.17300000000000004  0.8271300000000001  1.0000
  O   O24       1.0  0.13280000000000003  0.6732999999999999  0.24817000000000003  1.0000
  O   O25       1.0  0.0752  0.013899999999999996  0.35051  1.0000
  O   O26       1.0  0.7973000000000001  0.03000000000000003  0.34134000000000003  1.0000
  O   O27       1.0  0.7247  0.9193999999999997  0.26172  1.0000
  O   O28       1.0  0.9007  0.4496  0.27801  1.0000
  O   O29       1.0  0.0983  0.4937  0.27938  1.0000
  O   O30       1.0  0.099  0.17789999999999984  0.67739  1.0000
  O   O31       1.0  0.0892  0.327  0.67287  1.0000
  O   O32       1.0  0.13280000000000003  0.8266999999999995  0.25183  1.0000
