data_image0
_chemical_formula_structural       Cd2H72C64I4N24O8
_chemical_formula_sum              "Cd2 H72 C64 I4 N24 O8"
_cell_length_a       9.8463
_cell_length_b       16.8512
_cell_length_c       17.254299999999997
_cell_angle_alpha    101.21900000000001
_cell_angle_beta     106.57900000000001
_cell_angle_gamma    90.0

_space_group_name_H-M_alt    "P 1"
_space_group_IT_number       1

loop_
  _space_group_symop_operation_xyz
  'x, y, z'

loop_
  _atom_site_type_symbol
  _atom_site_label
  _atom_site_symmetry_multiplicity
  _atom_site_fract_x
  _atom_site_fract_y
  _atom_site_fract_z
  _atom_site_occupancy
  Cd  Cd1       1.0  0.0  0.49999999999999994  0.0  1.0000
  Cd  Cd2       1.0  0.0  0.0  0.0  1.0000
  H   H1        1.0  0.2862  0.877  0.2338  1.0000
  H   H2        1.0  0.66  0.9082  0.2732  1.0000
  H   H3        1.0  0.42600000000000005  0.0416  0.3738  1.0000
  H   H4        1.0  0.3868  0.9806  0.2888  1.0000
  H   H5        1.0  0.5236  0.9141  0.425  1.0000
  H   H6        1.0  0.5411  0.8926000000000004  0.3358  1.0000
  H   H7        1.0  0.1449  0.9977000000000001  0.43  1.0000
  H   H8        1.0  0.2847  0.0529  0.4538  1.0000
  H   H9        1.0  0.7522  0.0892  0.491  1.0000
  H   H10       1.0  0.5992  0.0643  0.4918  1.0000
  H   H11       1.0  0.9295  0.6350000000000002  0.154  1.0000
  H   H12       1.0  0.015600000000000011  0.7503000000000004  0.24740000000000004  1.0000
  H   H13       1.0  0.2667  0.7852  0.1158  1.0000
  H   H14       1.0  0.1634  0.6697000000000002  0.0248  1.0000
  H   H15       1.0  0.07180000000000002  0.021299999999999996  0.1918  1.0000
  H   H16       1.0  0.9791000000000001  0.014600000000000024  0.2984  1.0000
  H   H17       1.0  0.6425  0.886  0.132  1.0000
  H   H18       1.0  0.7447  0.8979  0.0322  1.0000
  H   H19       1.0  0.052399999999999974  0.623  0.7662  1.0000
  H   H20       1.0  0.3868  0.5918  0.7268  1.0000
  H   H21       1.0  0.05219999999999997  0.4584  0.6262  1.0000
  H   H22       1.0  0.09799999999999998  0.5194  0.7112  1.0000
  H   H23       1.0  0.09859999999999997  0.5859000000000002  0.575  1.0000
  H   H24       1.0  0.20529999999999995  0.6074  0.6642  1.0000
  H   H25       1.0  0.7149  0.5023  0.57  1.0000
  H   H26       1.0  0.8309  0.4471  0.5462  1.0000
  H   H27       1.0  0.2612  0.4108  0.509  1.0000
  H   H28       1.0  0.1074  0.4357  0.5082  1.0000
  H   H29       1.0  0.7755  0.865  0.846  1.0000
  H   H30       1.0  0.7682  0.7497000000000001  0.7526  1.0000
  H   H31       1.0  0.15090000000000006  0.7148  0.8842  1.0000
  H   H32       1.0  0.13859999999999992  0.8303  0.9752  1.0000
  H   H33       1.0  0.88  0.47870000000000007  0.8082  1.0000
  H   H34       1.0  0.6807  0.4854  0.7016  1.0000
  H   H35       1.0  0.5105  0.614  0.868  1.0000
  H   H36       1.0  0.7125  0.6021000000000003  0.9678  1.0000
  H   H37       1.0  0.7138  0.123  0.7662  1.0000
  H   H38       1.0  0.3400000000000001  0.09180000000000002  0.7268  1.0000
  H   H39       1.0  0.5740000000000001  0.9584  0.6262  1.0000
  H   H40       1.0  0.6132  0.019399999999999994  0.7112  1.0000
  H   H41       1.0  0.4764  0.08590000000000006  0.575  1.0000
  H   H42       1.0  0.45890000000000003  0.10740000000000001  0.6642  1.0000
  H   H43       1.0  0.8551000000000001  0.0022999999999999987  0.57  1.0000
  H   H44       1.0  0.7153000000000003  0.9471000000000005  0.5462  1.0000
  H   H45       1.0  0.2478  0.9108  0.509  1.0000
  H   H46       1.0  0.4008  0.9357  0.5082  1.0000
  H   H47       1.0  0.07049999999999998  0.3650000000000002  0.846  1.0000
  H   H48       1.0  0.9844  0.2497  0.7526  1.0000
  H   H49       1.0  0.7333  0.2148  0.8842  1.0000
  H   H50       1.0  0.8366  0.3303000000000002  0.9752  1.0000
  H   H51       1.0  0.9282000000000001  0.9787  0.8082  1.0000
  H   H52       1.0  0.020899999999999988  0.9854000000000002  0.7016  1.0000
  H   H53       1.0  0.35750000000000004  0.11400000000000009  0.868  1.0000
  H   H54       1.0  0.25530000000000025  0.10210000000000005  0.9678  1.0000
  H   H55       1.0  0.9476  0.377  0.2338  1.0000
  H   H56       1.0  0.6132  0.4082  0.2732  1.0000
  H   H57       1.0  0.9478000000000001  0.5416  0.3738  1.0000
  H   H58       1.0  0.902  0.4806000000000001  0.2888  1.0000
  H   H59       1.0  0.9014000000000001  0.4141  0.425  1.0000
  H   H60       1.0  0.7947  0.3926  0.3358  1.0000
  H   H61       1.0  0.2851  0.4977  0.43  1.0000
  H   H62       1.0  0.1691  0.5529  0.4538  1.0000
  H   H63       1.0  0.7388  0.5892  0.491  1.0000
  H   H64       1.0  0.8926000000000001  0.5643  0.4918  1.0000
  H   H65       1.0  0.2245  0.135  0.154  1.0000
  H   H66       1.0  0.23180000000000003  0.2503  0.24740000000000004  1.0000
  H   H67       1.0  0.8491  0.2852  0.1158  1.0000
  H   H68       1.0  0.8614000000000002  0.1697  0.0248  1.0000
  H   H69       1.0  0.12  0.5213  0.1918  1.0000
  H   H70       1.0  0.3193  0.5146  0.2984  1.0000
  H   H71       1.0  0.4895  0.386  0.132  1.0000
  H   H72       1.0  0.2875  0.3979000000000002  0.0322  1.0000
  C   C1        1.0  0.40475  0.9849  0.3477  1.0000
  C   C2        1.0  0.53526  0.937  0.37972  1.0000
  C   C3        1.0  0.24688  0.9971000000000001  0.43956  1.0000
  C   C4        1.0  0.68951  0.04360000000000002  0.48802  1.0000
  C   C5        1.0  0.19612000000000002  0.8877000000000005  0.32084  1.0000
  C   C6        1.0  0.0022999999999999965  0.6649  0.1464  1.0000
  C   C7        1.0  0.05310000000000001  0.7348  0.2034  1.0000
  C   C8        1.0  0.15802  0.7812  0.19504  1.0000
  C   C9        1.0  0.1977  0.7554  0.127  1.0000
  C   C10       1.0  0.1359  0.6838  0.0728  1.0000
  C   C11       1.0  0.7600800000000001  0.9947  0.36396  1.0000
  C   C12       1.0  0.98376  0.9941000000000001  0.17972  1.0000
  C   C13       1.0  0.92879  0.9906  0.24458  1.0000
  C   C14       1.0  0.7973700000000001  0.9508000000000001  0.22754  1.0000
  C   C15       1.0  0.72967  0.9147000000000004  0.14594  1.0000
  C   C16       1.0  0.7926000000000001  0.9218  0.0866  1.0000
  C   C17       1.0  0.057049999999999976  0.5151000000000004  0.6523  1.0000
  C   C18       1.0  0.15554  0.563  0.62028  1.0000
  C   C19       1.0  0.80732  0.5029  0.56044  1.0000
  C   C20       1.0  0.20149  0.4563999999999999  0.51198  1.0000
  C   C21       1.0  0.87528  0.6123  0.67916  1.0000
  C   C22       1.0  0.8559000000000001  0.8351  0.8536  1.0000
  C   C23       1.0  0.8497000000000001  0.7652000000000002  0.7966  1.0000
  C   C24       1.0  0.9629799999999998  0.7188  0.80496  1.0000
  C   C25       1.0  0.07070000000000008  0.7446  0.873  1.0000
  C   C26       1.0  0.06310000000000003  0.8162  0.9272  1.0000
  C   C27       1.0  0.39612  0.5053  0.63604  1.0000
  C   C28       1.0  0.80404  0.5059  0.82028  1.0000
  C   C29       1.0  0.68421  0.5094  0.75542  1.0000
  C   C30       1.0  0.56983  0.5492  0.7724599999999996  1.0000
  C   C31       1.0  0.58373  0.5853  0.85406  1.0000
  C   C32       1.0  0.706  0.5782000000000004  0.9134  1.0000
  C   C33       1.0  0.59525  0.015099999999999949  0.6523  1.0000
  C   C34       1.0  0.46474000000000004  0.063  0.62028  1.0000
  C   C35       1.0  0.75312  0.0029000000000000063  0.56044  1.0000
  C   C36       1.0  0.31049  0.9564  0.51198  1.0000
  C   C37       1.0  0.8038800000000001  0.11230000000000008  0.67916  1.0000
  C   C38       1.0  0.9977  0.3351  0.8536  1.0000
  C   C39       1.0  0.9469000000000001  0.2652  0.7966  1.0000
  C   C40       1.0  0.8419800000000001  0.2188  0.80496  1.0000
  C   C41       1.0  0.8023  0.24460000000000004  0.873  1.0000
  C   C42       1.0  0.8641  0.3162  0.9272  1.0000
  C   C43       1.0  0.23992  0.005299999999999997  0.63604  1.0000
  C   C44       1.0  0.016239999999999852  0.005900000000000005  0.82028  1.0000
  C   C45       1.0  0.07121000000000002  0.009400000000000007  0.75542  1.0000
  C   C46       1.0  0.20262999999999984  0.04919999999999992  0.7724599999999996  1.0000
  C   C47       1.0  0.27032999999999996  0.08530000000000006  0.85406  1.0000
  C   C48       1.0  0.20740000000000017  0.07820000000000006  0.9134  1.0000
  C   C49       1.0  0.94295  0.4849  0.3477  1.0000
  C   C50       1.0  0.84446  0.437  0.37972  1.0000
  C   C51       1.0  0.19267999999999993  0.49710000000000004  0.43956  1.0000
  C   C52       1.0  0.7985100000000002  0.5436  0.48802  1.0000
  C   C53       1.0  0.12472  0.3877  0.32084  1.0000
  C   C54       1.0  0.1441  0.1649  0.1464  1.0000
  C   C55       1.0  0.1503  0.2348  0.2034  1.0000
  C   C56       1.0  0.03702  0.2812000000000002  0.19504  1.0000
  C   C57       1.0  0.9293  0.2554  0.127  1.0000
  C   C58       1.0  0.9369  0.1838  0.0728  1.0000
  C   C59       1.0  0.60388  0.49470000000000003  0.36396  1.0000
  C   C60       1.0  0.19596  0.49410000000000004  0.17972  1.0000
  C   C61       1.0  0.31579  0.49060000000000004  0.24458  1.0000
  C   C62       1.0  0.43017000000000005  0.4508000000000002  0.22754  1.0000
  C   C63       1.0  0.41627  0.4147  0.14594  1.0000
  C   C64       1.0  0.294  0.4218000000000001  0.0866  1.0000
  I   I1        1.0  0.21223000000000017  0.53031  0.90638  1.0000
  I   I2        1.0  0.30585  0.9696900000000002  0.09362  1.0000
  I   I3        1.0  0.78777  0.46968999999999994  0.09362  1.0000
  I   I4        1.0  0.6941500000000002  0.03031  0.90638  1.0000
  N   N1        1.0  0.27583  0.9568000000000001  0.36326  1.0000
  N   N2        1.0  0.66754  0.9878  0.40808  1.0000
  N   N3        1.0  0.22320000000000004  0.8525000000000005  0.2478  1.0000
  N   N4        1.0  0.04596000000000001  0.6362  0.08252  1.0000
  N   N5        1.0  0.72769  0.9450000000000001  0.28618  1.0000
  N   N6        1.0  0.9183200000000001  0.9609000000000001  0.10104  1.0000
  N   N7        1.0  0.91257  0.5432  0.63674  1.0000
  N   N8        1.0  0.25946  0.5122  0.59192  1.0000
  N   N9        1.0  0.9754000000000002  0.6475  0.7522  1.0000
  N   N10       1.0  0.9634400000000001  0.8638000000000005  0.91748  1.0000
  N   N11       1.0  0.44151000000000007  0.555  0.71382  1.0000
  N   N12       1.0  0.81728  0.5391  0.89896  1.0000
  N   N13       1.0  0.7241700000000001  0.04320000000000005  0.63674  1.0000
  N   N14       1.0  0.33246  0.01220000000000002  0.59192  1.0000
  N   N15       1.0  0.7768  0.1475  0.7522  1.0000
  N   N16       1.0  0.9540400000000001  0.3638  0.91748  1.0000
  N   N17       1.0  0.27231  0.05500000000000005  0.71382  1.0000
  N   N18       1.0  0.08168  0.03910000000000002  0.89896  1.0000
  N   N19       1.0  0.08743000000000005  0.4568  0.36326  1.0000
  N   N20       1.0  0.74054  0.48780000000000007  0.40808  1.0000
  N   N21       1.0  0.02460000000000001  0.3525  0.2478  1.0000
  N   N22       1.0  0.03656000000000001  0.1362  0.08252  1.0000
  N   N23       1.0  0.55849  0.4450000000000001  0.28618  1.0000
  N   N24       1.0  0.18272  0.4609  0.10104  1.0000
  O   O1        1.0  0.10647  0.8592  0.34494  1.0000
  O   O2        1.0  0.86343  0.0422  0.39126  1.0000
  O   O3        1.0  0.76153  0.6408000000000005  0.65506  1.0000
  O   O4        1.0  0.47217000000000003  0.4578000000000004  0.60874  1.0000
  O   O5        1.0  0.89353  0.14080000000000004  0.65506  1.0000
  O   O6        1.0  0.13657  0.9578  0.60874  1.0000
  O   O7        1.0  0.23847  0.3592  0.34494  1.0000
  O   O8        1.0  0.52783  0.5422000000000001  0.39126  1.0000
