data_image0
_chemical_formula_structural       NC9NC3OCH8C16H10C12NCOH11Zn2C4O8
_chemical_formula_sum              "N3 C46 O10 H29 Zn2"
_cell_length_a       17.728193572023454
_cell_length_b       10.29914801576943
_cell_length_c       10.299148425239203
_cell_angle_alpha    85.5134079146002
_cell_angle_beta     90.68912747422073
_cell_angle_gamma    88.46752555428026

_space_group_name_H-M_alt    "P 1"
_space_group_IT_number       1

loop_
  _space_group_symop_operation_xyz
  'x, y, z'

loop_
  _atom_site_type_symbol
  _atom_site_label
  _atom_site_symmetry_multiplicity
  _atom_site_fract_x
  _atom_site_fract_y
  _atom_site_fract_z
  _atom_site_occupancy
  N   N1        1.0  0.7110070133996713  0.3876150498048758  0.5845323585604525  1.0000
  C   C1        1.0  0.6503845978823584  0.3501788092499518  0.5975533357449865  1.0000
  C   C2        1.0  0.5749180423207387  0.30364055842603555  0.6137590881809301  1.0000
  C   C3        1.0  0.5629904322742986  0.17558897204689417  0.6232306593235695  1.0000
  C   C4        1.0  0.4862669745015212  0.12612752434697083  0.638201964478587  1.0000
  C   C5        1.0  0.42813418958630023  0.2087962428113499  0.6556405440202981  1.0000
  C   C6        1.0  0.3500724024313975  0.16373582264710684  0.6773941825628171  1.0000
  C   C7        1.0  0.2887549181037076  0.2492257614695763  0.6418961679590309  1.0000
  C   C8        1.0  0.2144685558432791  0.20991164528273742  0.662061220663849  1.0000
  C   C9        1.0  0.1521731767257881  0.2979394537648099  0.6244877009456671  1.0000
  N   N2        1.0  0.1021010989985911  0.3687052828641213  0.594282142924287  1.0000
  C   C10       1.0  0.20086803295821073  0.0849872863104113  0.7187785002248896  1.0000
  C   C11       1.0  0.2612867106647133  0.9998143307343414  0.7556850571532547  1.0000
  C   C12       1.0  0.3354693133484813  0.0386387291318806  0.7356497911847539  1.0000
  O   O1        1.0  0.4415199325822494  0.3425925091500912  0.6542923377138521  1.0000
  C   C13       1.0  0.5092640512004561  0.39999763160164115  0.6056566520619542  1.0000
  H   H1        1.0  0.6099027034777339  0.10612388724045796  0.6211566562584125  1.0000
  H   H2        1.0  0.4785922669154336  0.02247131311500916  0.6362600292540161  1.0000
  H   H3        1.0  0.2986735569797753  0.3460771624328629  0.5974282227290839  1.0000
  H   H4        1.0  0.1436442803390539  0.05368983871535704  0.7349321463998906  1.0000
  H   H5        1.0  0.2506314484653325  0.9036216515720215  0.8006139134293038  1.0000
  H   H6        1.0  0.3809809398426104  0.9713894611139332  0.7680988126231301  1.0000
  H   H7        1.0  0.49981761767228094  0.43597347346380455  0.5021086707416205  1.0000
  H   H8        1.0  0.522156123730401  0.4843660681094968  0.6622099450034551  1.0000
  C   C14       1.0  0.906503920549662  0.9967611538333829  0.5895715639735088  1.0000
  C   C15       1.0  0.889293343185084  0.007247925840142999  0.45565918148290074  1.0000
  C   C16       1.0  0.880622695016969  0.8954325676461451  0.38759952874021253  1.0000
  C   C17       1.0  0.8893941407997183  0.7719914062826811  0.45525707566996254  1.0000
  C   C18       1.0  0.9066114321563239  0.759548832056868  0.5892543843693903  1.0000
  C   C19       1.0  0.9150616606231154  0.8724552884089325  0.6555865957663518  1.0000
  C   C20       1.0  0.8624161660401469  0.907571904372572  0.24593638258352368  1.0000
  C   C21       1.0  0.8981325641087555  0.8248955222583463  0.16160311304614372  1.0000
  C   C22       1.0  0.8809708425337321  0.8364470986969783  0.028274561506344664  1.0000
  C   C23       1.0  0.8279165691318073  0.9305846380914298  0.9774705064268359  1.0000
  C   C24       1.0  0.7920627601655335  0.013248516503965524  0.06051631954207615  1.0000
  C   C25       1.0  0.8091706738208302  0.0019407986699770952  0.19386447772198245  1.0000
  C   C26       1.0  0.8102764112786176  0.9423519510416075  0.8401970067560853  1.0000
  C   C27       1.0  0.7955029691661317  0.9522069617618607  0.7252324350464132  1.0000
  C   C28       1.0  0.7782034429412579  0.9637470477501787  0.5906100944827681  1.0000
  C   C29       1.0  0.7634324803505869  0.9736005536655502  0.47566409364655016  1.0000
  H   H9        1.0  0.9130850340450002  0.3202039626174249  0.6410931299027529  1.0000
  H   H10       1.0  0.8836081874352277  0.10259983888362179  0.40360373523630355  1.0000
  H   H11       1.0  0.8817610755338612  0.685488712391866  0.4036476851683395  1.0000
  H   H12       1.0  0.9283344133398943  0.8636507876314012  0.758877454404705  1.0000
  H   H13       1.0  0.9386408104144316  0.5287800845929046  0.8423338793368542  1.0000
  H   H14       1.0  0.9400480655600341  0.7524492043989748  0.19850025164207397  1.0000
  H   H15       1.0  0.9092136527958667  0.7721854471192964  0.9647992918881694  1.0000
  H   H16       1.0  0.7507476943540741  0.08623072743533444  0.022264160879044148  1.0000
  H   H17       1.0  0.7800482750582729  0.06585550761796033  0.25651497603885587  1.0000
  H   H18       1.0  0.7504623860836674  0.982252761367991  0.37473181402825295  1.0000
  C   C30       1.0  0.9066144624866507  0.3783081065986835  0.2080180978208943  1.0000
  C   C31       1.0  0.9831846382383528  0.41016780134003183  0.20594261098491584  1.0000
  C   C32       1.0  0.021887420107456368  0.426112908788119  0.08775525944422546  1.0000
  C   C33       1.0  0.9830255046488526  0.4098353161849282  0.9706816315264972  1.0000
  C   C34       1.0  0.9065008885379813  0.3780018946900321  0.9708077860464672  1.0000
  C   C35       1.0  0.8687443138661292  0.36241594018100987  0.08999294145900749  1.0000
  C   C36       1.0  0.10284387436576936  0.45979458049546573  0.08665117896649166  1.0000
  C   C37       1.0  0.15354457955168943  0.3999673269333124  0.004341143190330854  1.0000
  C   C38       1.0  0.22968806739884307  0.4318020979174009  0.0034503532325524944  1.0000
  C   C39       1.0  0.2569134788938512  0.5227665416857228  0.08559935661137685  1.0000
  C   C40       1.0  0.20613814194446922  0.584443776423514  0.1663383608942015  1.0000
  C   C41       1.0  0.1299605655977727  0.5527173312839844  0.16732509754780867  1.0000
  N   N3        1.0  0.3352908027924417  0.5551869781814256  0.08100268141308109  1.0000
  C   C42       1.0  0.3787034171378636  0.5897640948039129  0.19079965471879  1.0000
  O   O2        1.0  0.35316740922490797  0.5768350345034747  0.30452917002400004  1.0000
  H   H19       1.0  0.7622119844534208  0.31740475309476524  0.4192916579257002  1.0000
  H   H20       1.0  0.013126976292309411  0.420916516543129  0.296610348701418  1.0000
  H   H21       1.0  0.012307324930857622  0.42381250426408257  0.8791722605077243  1.0000
  H   H22       1.0  0.8097198467070974  0.3378584481616509  0.0908053666360622  1.0000
  H   H23       1.0  0.8770696741998242  0.3657214985525863  0.6433832408905529  1.0000
  H   H24       1.0  0.13450822442224997  0.3273717240476395  0.9417245614313239  1.0000
  H   H25       1.0  0.2678119662782761  0.3844169568088929  0.9394649490040039  1.0000
  H   H26       1.0  0.22474656325369202  0.6592247922058085  0.22653675802042827  1.0000
  H   H27       1.0  0.09192608813335856  0.6027646288929174  0.22941903873057012  1.0000
  H   H28       1.0  0.364313515978518  0.544843625855636  0.9945468787624692  1.0000
  H   H29       1.0  0.4353714534497466  0.6240670644743076  0.17637295575960232  1.0000
  Zn  Zn1       1.0  0.823868328263478  0.3821546259017794  0.5873534373895346  1.0000
  Zn  Zn2       1.0  0.9892398066518546  0.3741550979443544  0.5914717068970055  1.0000
  C   C43       1.0  0.9065199501613548  0.3728857702244679  0.8266263413916579  1.0000
  C   C44       1.0  0.9065899908173923  0.3834255049640469  0.3521989746599039  1.0000
  C   C45       1.0  0.9065880026860174  0.6153679998455917  0.5841386954642414  1.0000
  C   C46       1.0  0.9065218816327429  0.14094171761980312  0.5946866890742899  1.0000
  O   O3        1.0  0.9693393913106416  0.3821015052475649  0.4021502582074885  1.0000
  O   O4        1.0  0.9692836752468963  0.36813733366845636  0.7798003556459547  1.0000
  O   O5        1.0  0.9693377823174862  0.5639448410754739  0.5839898442892182  1.0000
  O   O6        1.0  0.969285227825776  0.1862940099002881  0.5979606707737819  1.0000
  O   O7        1.0  0.8438228506563883  0.5700157166771089  0.5808644721005627  1.0000
  O   O8        1.0  0.8437687438126172  0.37420976972447395  0.7766749135581352  1.0000
  O   O9        1.0  0.8438244601526513  0.38817389666849  0.3990232546328172  1.0000
  O   O10       1.0  0.8437702966488932  0.19236639199273498  0.5948337645773589  1.0000
