data_image0
_chemical_formula_structural       NC9NC3OCH8C12NCOCH13C12BrH9Zn2C4O8
_chemical_formula_sum              "N3 C43 O10 H30 Br1 Zn2"
_cell_length_a       17.728193572023454
_cell_length_b       10.299155265289647
_cell_length_c       10.299148005577397
_cell_angle_alpha    85.5359577284707
_cell_angle_beta     90.67765201936251
_cell_angle_gamma    88.43175330785003

_space_group_name_H-M_alt    "P 1"
_space_group_IT_number       1

loop_
  _space_group_symop_operation_xyz
  'x, y, z'

loop_
  _atom_site_type_symbol
  _atom_site_label
  _atom_site_symmetry_multiplicity
  _atom_site_fract_x
  _atom_site_fract_y
  _atom_site_fract_z
  _atom_site_occupancy
  N   N1        1.0  0.7106759800088169  0.3872316293282021  0.5847244182666116  1.0000
  C   C1        1.0  0.6500655388660511  0.34979873611393786  0.5977408209012813  1.0000
  C   C2        1.0  0.5746138667623654  0.3032646517468869  0.6139408861035447  1.0000
  C   C3        1.0  0.5627314561107515  0.1752147656261258  0.6233976556693794  1.0000
  C   C4        1.0  0.4860240890533414  0.1257571198795211  0.6383629706850074  1.0000
  C   C5        1.0  0.42785927552876685  0.20843128902073738  0.6558105378798698  1.0000
  C   C6        1.0  0.349811166049484  0.16337658851671355  0.6775585235658226  1.0000
  C   C7        1.0  0.2884670338179874  0.24885728102792837  0.6420710944713541  1.0000
  C   C8        1.0  0.21419246162554323  0.20954848470973397  0.662231186602859  1.0000
  C   C9        1.0  0.1518697670873939  0.29756648833637955  0.6246685912799084  1.0000
  N   N2        1.0  0.10177573041926741  0.3683244352572699  0.5944718154159787  1.0000
  C   C10       1.0  0.20063029276420893  0.08463898413505366  0.7189328809632316  1.0000
  C   C11       1.0  0.2610753333120235  0.9994756687858815  0.7558288544843468  1.0000
  C   C12       1.0  0.3352463074724816  0.038294779830032155  0.7357984902256458  1.0000
  O   O1        1.0  0.44119675761670485  0.34222815543495  0.6544775910052734  1.0000
  C   C13       1.0  0.5089259816482463  0.3996201743718424  0.6058496114904683  1.0000
  H   H1        1.0  0.6096691191432714  0.10574859804350001  0.6213157970337617  1.0000
  H   H2        1.0  0.4783871318811442  0.02209961345546607  0.6364092855246375  1.0000
  H   H3        1.0  0.2983559975741861  0.34569702462600627  0.5976152441080154  1.0000
  H   H4        1.0  0.143415913906629  0.05334579956230234  0.7350825756671475  1.0000
  H   H5        1.0  0.2504494520866601  0.90329477993202  0.800745679744002  1.0000
  H   H6        1.0  0.3807783488747954  0.9710540433464218  0.7682390756045676  1.0000
  H   H7        1.0  0.49947904998088255  0.4355674897411952  0.5023082219455175  1.0000
  H   H8        1.0  0.5217806801501981  0.4840049486976574  0.6624111421132759  1.0000
  C   C14       1.0  0.9063137367806685  0.9963762864099396  0.589719020338372  1.0000
  C   C15       1.0  0.8934590743634906  0.006728934951833576  0.454467304968583  1.0000
  C   C16       1.0  0.8868684338445565  0.8948438215839682  0.3857722860570365  1.0000
  C   C17       1.0  0.8932787167417628  0.7714779555021841  0.45415501105894673  1.0000
  C   C18       1.0  0.9061452498564435  0.7591694804589396  0.5894886165683946  1.0000
  C   C19       1.0  0.9125869060860469  0.8721397419705202  0.6564375346544071  1.0000
  C   C20       1.0  0.8732706847728713  0.9067692979591526  0.24269232597090618  1.0000
  C   C21       1.0  0.9115643990320471  0.9990477227560649  0.1622254135368537  1.0000
  C   C22       1.0  0.8987742308024694  0.010139204280018799  0.02757779197650101  1.0000
  C   C23       1.0  0.8479038885002385  0.9282689912367477  0.9705568449106541  1.0000
  C   C24       1.0  0.8086883890971112  0.83785143016212  0.05093262108329588  1.0000
  C   C25       1.0  0.8215060530195992  0.8265026085842748  0.185543590752558  1.0000
  N   N3        1.0  0.8326860494151135  0.9392773884350277  0.832610242587084  1.0000
  C   C26       1.0  0.8878149474172286  0.9735714131698082  0.735762017405198  1.0000
  O   O2        1.0  0.957038341917462  0.972752794875956  0.7653469617795805  1.0000
  C   C27       1.0  0.863777420079472  0.0012121544245222715  0.5966167242123839  1.0000
  H   H9        1.0  0.9112816156460708  0.3198692706597719  0.6417375046799929  1.0000
  H   H10       1.0  0.8875023911138122  0.1020739378568174  0.4025068466322197  1.0000
  H   H11       1.0  0.8892334078944956  0.6848865657924291  0.40142334160071114  1.0000
  H   H12       1.0  0.9225045164432496  0.8634395399822187  0.7607596269996988  1.0000
  H   H13       1.0  0.9308820758500188  0.5286327433386648  0.8448041566296114  1.0000
  H   H14       1.0  0.951850745179027  0.062139261348110875  0.20332361946392297  1.0000
  H   H15       1.0  0.9277411289687514  0.08420820315225663  0.9687165854100166  1.0000
  H   H16       1.0  0.7683298544461575  0.7754676315116165  0.008965540542261285  1.0000
  H   H17       1.0  0.79011402571208  0.7561670054857047  0.24517734108995848  1.0000
  H   H18       1.0  0.7795419400096613  0.9129851495280362  0.8002108694427079  1.0000
  H   H19       1.0  0.8093038972485703  0.05729229740905373  0.5908052348327191  1.0000
  H   H20       1.0  0.8568064336454826  0.907949944539831  0.5512168560115391  1.0000
  H   H21       1.0  0.9067530839262918  0.059238590522250556  0.5422899948228004  1.0000
  C   C28       1.0  0.9063323304139872  0.3778199390083741  0.20821817951464183  1.0000
  C   C29       1.0  0.8353351701291702  0.4420366217664251  0.2009936531330856  1.0000
  C   C30       1.0  0.7992318452774849  0.4745477196551673  0.08018976575261916  1.0000
  C   C31       1.0  0.8350833205142016  0.441975986567811  0.9657103629479535  1.0000
  C   C32       1.0  0.9061266174216864  0.37772580422007795  0.970989436801466  1.0000
  C   C33       1.0  0.941313519246998  0.3460414429759888  0.09265607882344296  1.0000
  C   C34       1.0  0.7241259571838189  0.5424831259697183  0.07359201784277403  1.0000
  C   C35       1.0  0.7082518482894499  0.6445759777838742  0.1532443503428753  1.0000
  C   C36       1.0  0.6375281181914034  0.7084085567345577  0.14683891050132813  1.0000
  C   C37       1.0  0.5818745582279738  0.6711523172504525  0.06109905200015442  1.0000
  C   C38       1.0  0.5969905374584991  0.569883041348106  0.9815751258789311  1.0000
  C   C39       1.0  0.6676501575356714  0.5058315794569228  0.9875864952684865  1.0000
  Br  Br1       1.0  0.48531032833998744  0.7584975046542495  0.05261761930896558  1.0000
  H   H22       1.0  0.9336562961423047  0.3531713802266254  0.5384689000817824  1.0000
  H   H23       1.0  0.8074833039559648  0.46533098300142717  0.28963250147391695  1.0000
  H   H24       1.0  0.8079757860927845  0.46838332356974255  0.8722108428125184  1.0000
  H   H25       1.0  0.9960764924902723  0.29651339879201744  0.09751252053996984  1.0000
  H   H26       1.0  0.04042766833614264  0.25718206959924084  0.7736095445137594  1.0000
  H   H27       1.0  0.7508254890836744  0.6761374701661909  0.21920302591690266  1.0000
  H   H28       1.0  0.6261147901930872  0.7870325656192623  0.20833580632345683  1.0000
  H   H29       1.0  0.5539700003380124  0.5404953027929293  0.9152976730420419  1.0000
  H   H30       1.0  0.6778008691848285  0.42657926655367895  0.9262594296382676  1.0000
  Zn  Zn1       1.0  0.8235389299648566  0.3817719499600787  0.5875448076209082  1.0000
  Zn  Zn2       1.0  0.9889128055328116  0.37377350868416315  0.5916620673994328  1.0000
  C   C40       1.0  0.9061649705345541  0.37256954990882685  0.8268108857209311  1.0000
  C   C41       1.0  0.9062885704442898  0.3829774601368543  0.3523961612368425  1.0000
  C   C42       1.0  0.9061745878637465  0.6149861294440273  0.5843566844816208  1.0000
  C   C43       1.0  0.9062788970106042  0.14055932288622475  0.5948504307841909  1.0000
  O   O3        1.0  0.9690324093753061  0.381667338335538  0.4023460893249984  1.0000
  O   O4        1.0  0.9689360769858835  0.3678080600928013  0.7799854889712663  1.0000
  O   O5        1.0  0.9689429967217338  0.5635625545950749  0.584201984595673  1.0000
  O   O6        1.0  0.9690254332327625  0.1859128558656271  0.5981294949139035  1.0000
  O   O7        1.0  0.8434262458309194  0.5696326055095049  0.5810773786945871  1.0000
  O   O8        1.0  0.8434193257655768  0.3738796714535506  0.7768608133502923  1.0000
  O   O9        1.0  0.8435156586362776  0.3877389046267412  0.399219852249755  1.0000
  O   O10       1.0  0.8435086824664415  0.1919844128553576  0.5950033552134975  1.0000
