data_image0
_chemical_formula_structural       NC9NC3OCH8C12NCOCH13C16H10Zn2C4O8
_chemical_formula_sum              "N3 C47 O10 H31 Zn2"
_cell_length_a       17.728193572023454
_cell_length_b       10.299155265289647
_cell_length_c       10.299151387937775
_cell_angle_alpha    85.56903598390942
_cell_angle_beta     90.6938546660218
_cell_angle_gamma    88.43175330785003

_space_group_name_H-M_alt    "P 1"
_space_group_IT_number       1

loop_
  _space_group_symop_operation_xyz
  'x, y, z'

loop_
  _atom_site_type_symbol
  _atom_site_label
  _atom_site_symmetry_multiplicity
  _atom_site_fract_x
  _atom_site_fract_y
  _atom_site_fract_z
  _atom_site_occupancy
  N   N1        1.0  0.710456755330557  0.386422847937987  0.5847830842122987  1.0000
  C   C1        1.0  0.6498483304146776  0.3489973931508066  0.5977989472915772  1.0000
  C   C2        1.0  0.5743991676838147  0.3024725665646604  0.6139983409693988  1.0000
  C   C3        1.0  0.5625182218757212  0.17442808466293314  0.623454718533607  1.0000
  C   C4        1.0  0.48581317292964704  0.12497899107990662  0.6384194132076073  1.0000
  C   C5        1.0  0.4276510620146236  0.2076631309065735  0.6558662571666263  1.0000
  C   C6        1.0  0.3496063212751299  0.16262085862947928  0.6776133413559631  1.0000
  C   C7        1.0  0.2882566920787129  0.24808127129370994  0.6421273832849581  1.0000
  C   C8        1.0  0.2139852426630398  0.20878399577581175  0.6622866397411464  1.0000
  C   C9        1.0  0.1516567297189343  0.2967805336692406  0.6247256014613649  1.0000
  N   N2        1.0  0.1015580156024305  0.36752122416977095  0.5945300773129563  1.0000
  C   C10       1.0  0.2004318568336911  0.08390689827215425  0.7189859837051971  1.0000
  C   C11       1.0  0.2608826125284556  0.9987646677047326  0.7558804278159228  1.0000
  C   C12       1.0  0.335050484006852  0.03757233208361166  0.7358508938550645  1.0000
  O   O1        1.0  0.4409883376305123  0.34145923558742464  0.6545333655452894  1.0000
  C   C13       1.0  0.5087100292398874  0.3988234653040532  0.6059074017555073  1.0000
  H   H1        1.0  0.6094555624305588  0.10496072736959405  0.6213729461951087  1.0000
  H   H2        1.0  0.47817591313370206  0.02132036819187788  0.6364658090313149  1.0000
  H   H3        1.0  0.2981387696711013  0.34489560990005064  0.5976733757037154  1.0000
  H   H4        1.0  0.1432199795465977  0.05262294269529799  0.7351350089726272  1.0000
  H   H5        1.0  0.2502636888714226  0.9026094472739308  0.8007953911851697  1.0000
  H   H6        1.0  0.380587550421244  0.9703501342804394  0.7682901345081639  1.0000
  H   H7        1.0  0.49924705912170697  0.4347116103251978  0.5023703042040126  1.0000
  H   H8        1.0  0.5215734890626113  0.48324056260212833  0.6624665877920546  1.0000
  C   C14       1.0  0.9060952857609427  0.9955703592632792  0.5897774792480175  1.0000
  C   C15       1.0  0.893219672997296  0.0058457160947826825  0.45453137032681723  1.0000
  C   C16       1.0  0.8866183916931938  0.8939213458827996  0.3858391989583927  1.0000
  C   C17       1.0  0.8930392670015749  0.7705945581798891  0.4542190893623754  1.0000
  C   C18       1.0  0.9059267631474197  0.7583634216444374  0.5895470850287277  1.0000
  C   C19       1.0  0.9123787896930354  0.8713719421634802  0.656493227950919  1.0000
  C   C20       1.0  0.8729984796882819  0.9057650569745833  0.2427651698169324  1.0000
  C   C21       1.0  0.9112797297085374  0.997997497694511  0.16230159289405188  1.0000
  C   C22       1.0  0.8984687047059777  0.009012032726940511  0.02765955274141585  1.0000
  C   C23       1.0  0.8475895299198577  0.927109234170689  0.970640969305542  1.0000
  C   C24       1.0  0.8083864806387409  0.8367376050918024  0.05101341374478707  1.0000
  C   C25       1.0  0.821224995656872  0.8254657090601847  0.18561880352562476  1.0000
  N   N3        1.0  0.8323503230531488  0.938038799623235  0.8327000851389035  1.0000
  C   C26       1.0  0.8874642193684689  0.9722774789233783  0.7358558745056971  1.0000
  O   O2        1.0  0.9566921965450346  0.9714757674092017  0.7654395925261723  1.0000
  C   C27       1.0  0.8634051385731912  0.9998387034216931  0.5967163491579015  1.0000
  H   H9        1.0  0.9110712222340933  0.31909307029044376  0.6417938073215472  1.0000
  H   H10       1.0  0.8872549411280359  0.1011610253823032  0.4025730658532536  1.0000
  H   H11       1.0  0.8889857900749453  0.6839730341320002  0.40148960573515136  1.0000
  H   H12       1.0  0.9223125594310861  0.8627313566682252  0.7608109959410936  1.0000
  H   H13       1.0  0.9307031372458637  0.5279725885870173  0.844852041760592  1.0000
  H   H14       1.0  0.9515724419237853  0.06111252249981036  0.20339809521996544  1.0000
  H   H15       1.0  0.9274264853341365  0.08304739444109321  0.9688007860872645  1.0000
  H   H16       1.0  0.7680214453317683  0.7743298236960432  0.009048072821463915  1.0000
  H   H17       1.0  0.7898422055536823  0.7551641846019331  0.24525008192723874  1.0000
  H   H18       1.0  0.7792011950193495  0.9117280455871818  0.8003020550120215  1.0000
  H   H19       1.0  0.8089307155487826  0.055915525339627514  0.5909051006758577  1.0000
  H   H20       1.0  0.8564271197480351  0.9065505490714909  0.5513183628705414  1.0000
  H   H21       1.0  0.9063723872675666  0.0578340936593158  0.5423918717176885  1.0000
  C   C28       1.0  0.9060547853208775  0.376795997233049  0.20829245238158056  1.0000
  C   C29       1.0  0.8332296621873881  0.4342725953965252  0.20155304425926412  1.0000
  C   C30       1.0  0.7962607709652292  0.463590549508597  0.0809788956409736  1.0000
  C   C31       1.0  0.8330982988148614  0.43465656608871805  0.9662373242421185  1.0000
  C   C32       1.0  0.9059672272095101  0.37713770354528253  0.971032146822064  1.0000
  C   C33       1.0  0.9419976120121538  0.3485634277391352  0.09247504481578983  1.0000
  C   C34       1.0  0.7192206104149185  0.524394140453589  0.07489482553035098  1.0000
  C   C35       1.0  0.7000303578796442  0.6251412599533805  0.9790821899419062  1.0000
  C   C36       1.0  0.6275077298007363  0.6823309852914696  0.9734838368930094  1.0000
  C   C37       1.0  0.5732239619854201  0.6396280823817717  0.0633724275134977  1.0000
  C   C38       1.0  0.5917301303316904  0.5394724040761572  0.15900575599656297  1.0000
  C   C39       1.0  0.6642311271679847  0.4821961248760138  0.1648531608795265  1.0000
  C   C40       1.0  0.4985723047666366  0.6985505466208757  0.05748116606490483  1.0000
  C   C41       1.0  0.43605259524122525  0.7478972233578618  0.05254723263205552  1.0000
  C   C42       1.0  0.3628426654844014  0.8056817355278998  0.04676964641241521  1.0000
  C   C43       1.0  0.3003330592142787  0.8550206754953333  0.04183661675787609  1.0000
  H   H22       1.0  0.9340504137884645  0.3546262410022025  0.5383647804274188  1.0000
  H   H23       1.0  0.8054962964399414  0.4580089525202735  0.29015908947375757  1.0000
  H   H24       1.0  0.8044587314250065  0.45542112518225486  0.8731449306264265  1.0000
  H   H25       1.0  0.998168588649821  0.3042267404408565  0.09695782755876303  1.0000
  H   H26       1.0  0.04331407823347089  0.2678246278475649  0.7728435058944925  1.0000
  H   H27       1.0  0.7413935462493455  0.6608469888797441  0.909555448791763  1.0000
  H   H28       1.0  0.6138429968085951  0.7600462692076622  0.8992680038789991  1.0000
  H   H29       1.0  0.5500738569232954  0.5054221574103648  0.22885611452937504  1.0000
  H   H30       1.0  0.6770042027200853  0.4037622413598343  0.23865398066309917  1.0000
  H   H31       1.0  0.2454444638730477  0.898344276019539  0.03750501682742535  1.0000
  Zn  Zn1       1.0  0.8233201421618995  0.3809647803255187  0.5876033566559311  1.0000
  Zn  Zn2       1.0  0.9886946554890034  0.37296869192216797  0.591720445765971  1.0000
  C   C44       1.0  0.9059832447919246  0.3718991126207969  0.8268595167082438  1.0000
  C   C45       1.0  0.9060333583667873  0.3820359111265854  0.3524644576439637  1.0000
  C   C46       1.0  0.9059553062239152  0.6141771379065828  0.5844153656705939  1.0000
  C   C47       1.0  0.9060612408408839  0.13975632816440586  0.5949086769868199  1.0000
  O   O3        1.0  0.9687849344883941  0.3807543339937436  0.4024123152097381  1.0000
  O   O4        1.0  0.9687470980392353  0.36711086369865176  0.7800360609630148  1.0000
  O   O5        1.0  0.9687236911190552  0.5627534746519594  0.5842606721972594  1.0000
  O   O6        1.0  0.9688082849865792  0.18511173501634604  0.5981876051929  1.0000
  O   O7        1.0  0.8432064562301191  0.5688217399614248  0.5811361958172099  1.0000
  O   O8        1.0  0.8432298628100073  0.37318068941459415  0.7769115148659671  1.0000
  O   O9        1.0  0.8432676994985769  0.38682411374782255  0.39928620772314605  1.0000
  O   O10       1.0  0.8432910499845526  0.19118150552459867  0.5950615950771099  1.0000
