data_image0
_chemical_formula_structural       NC9NC3OCH8C12SCH12C16H10Zn2C4O8
_chemical_formula_sum              "N2 C46 O9 H30 S1 Zn2"
_cell_length_a       17.728193572023454
_cell_length_b       10.299776766347529
_cell_length_c       10.299151387937775
_cell_angle_alpha    85.58705518708116
_cell_angle_beta     90.6938546660218
_cell_angle_gamma    88.43488659094774

_space_group_name_H-M_alt    "P 1"
_space_group_IT_number       1

loop_
  _space_group_symop_operation_xyz
  'x, y, z'

loop_
  _atom_site_type_symbol
  _atom_site_label
  _atom_site_symmetry_multiplicity
  _atom_site_fract_x
  _atom_site_fract_y
  _atom_site_fract_z
  _atom_site_occupancy
  N   N1        1.0  0.7105044421178074  0.3863031392242524  0.5852215767677316  1.0000
  C   C1        1.0  0.6498947299325334  0.34888091588486625  0.5982256030662381  1.0000
  C   C2        1.0  0.574443966954307  0.3023601064188617  0.6144102820485171  1.0000
  C   C3        1.0  0.5625586169848307  0.17432668033625331  0.6238261621900509  1.0000
  C   C4        1.0  0.4858518672095982  0.12488185636505333  0.6387752172924439  1.0000
  C   C5        1.0  0.4276926002616884  0.2075588569469804  0.656248212277335  1.0000
  C   C6        1.0  0.34964631026811355  0.1625204737809791  0.6779810506677779  1.0000
  C   C7        1.0  0.2882996205302629  0.24797350748713054  0.6425221216916794  1.0000
  C   C8        1.0  0.21402681946287694  0.20867962503673132  0.6626689493547409  1.0000
  C   C9        1.0  0.1517013332087799  0.29666856499394645  0.6251357422859263  1.0000
  N   N2        1.0  0.10160505225778751  0.36740314748992264  0.5949625917345751  1.0000
  C   C10       1.0  0.20046913841609884  0.08381330986888114  0.7193287976644311  1.0000
  C   C11       1.0  0.2609169655963475  0.998678430786557  0.7561963133136762  1.0000
  C   C12       1.0  0.33508617188600853  0.037482744372715704  0.7361790532935921  1.0000
  O   O1        1.0  0.4410344778692337  0.3413434091930039  0.6549576371800914  1.0000
  C   C13       1.0  0.5087581425532895  0.3987026858766063  0.6063498163311274  1.0000
  H   H1        1.0  0.6094935681711627  0.10486532110331903  0.621722418979489  1.0000
  H   H2        1.0  0.4782110420174946  0.021232183733745913  0.6367888283603962  1.0000
  H   H3        1.0  0.2981850281058341  0.34477948679676507  0.5980987341819402  1.0000
  H   H4        1.0  0.143256185099902  0.05253205546078332  0.7354679285611465  1.0000
  H   H5        1.0  0.250294734626869  0.9025315127418376  0.8010808650748142  1.0000
  H   H6        1.0  0.38062092615540816  0.9702663507748376  0.7685970331651486  1.0000
  H   H7        1.0  0.49929640682787696  0.4345877321867879  0.5028240693459072  1.0000
  H   H8        1.0  0.5216245059491659  0.48311249430018766  0.6629357014867574  1.0000
  C   C14       1.0  0.906129528958814  0.9954843981531339  0.5900923544620229  1.0000
  C   C15       1.0  0.9106486513694684  0.9837638712987522  0.7267187381744777  1.0000
  C   C16       1.0  0.9128658688497285  0.8606898795830513  0.795951963213305  1.0000
  C   C17       1.0  0.9105043489424909  0.7484830749786026  0.7267303344018219  1.0000
  C   C18       1.0  0.9059872421192975  0.758211556591518  0.5901032515092315  1.0000
  C   C19       1.0  0.9038246932167305  0.882150198851124  0.5225490512024413  1.0000
  C   C20       1.0  0.9176382739409962  0.8493551926575251  0.9404870543655042  1.0000
  C   C21       1.0  0.8744393951929504  0.7580146953861104  0.0134537667452298  1.0000
  C   C22       1.0  0.8789534518601404  0.7475807876513622  0.14947543553415465  1.0000
  C   C23       1.0  0.9264780237101718  0.8282187006571031  0.21433237184879372  1.0000
  C   C24       1.0  0.9698568348422013  0.9189773156254321  0.14274320514343464  1.0000
  C   C25       1.0  0.9654534368775971  0.9297557599811184  0.0067138774975478155  1.0000
  S   S1        1.0  0.932353398473416  0.814366002291898  0.3888689596399172  1.0000
  C   C26       1.0  0.8565181438265421  0.9341011008467287  0.40650886010163256  1.0000
  H   H9        1.0  0.9044372275193644  0.32740249814332034  0.5380322397465438  1.0000
  H   H10       1.0  0.9114139304292185  0.07058110022475295  0.7796961040639854  1.0000
  H   H11       1.0  0.9132373395278417  0.6533603207208274  0.7795605731819808  1.0000
  H   H12       1.0  0.9003388983969287  0.8904235737461067  0.41714761835180925  1.0000
  H   H13       1.0  0.9042283426046713  0.43446660282463856  0.5380461438182838  1.0000
  H   H14       1.0  0.8364557478965625  0.6958656017857172  0.9653936150303875  1.0000
  H   H15       1.0  0.8452071477377313  0.6771736465655718  0.20435639645595172  1.0000
  H   H16       1.0  0.007037124414863483  0.9812218014578138  0.1923722816178841  1.0000
  H   H17       1.0  0.00015204223165743436  0.9997485477090141  0.9532696772536244  1.0000
  H   H18       1.0  0.8716309430901023  0.029679121322365942  0.3580076362296162  1.0000
  H   H19       1.0  0.8477615528870659  0.9452496603137389  0.5115699876270337  1.0000
  H   H20       1.0  0.8034204362707335  0.901116143585459  0.3630643049094111  1.0000
  C   C27       1.0  0.906102140987228  0.37667711973607965  0.2087279001932163  1.0000
  C   C28       1.0  0.8332789947933948  0.4341487551642358  0.20200667055118382  1.0000
  C   C29       1.0  0.796311111978622  0.46346417785915683  0.0814417945041277  1.0000
  C   C30       1.0  0.8331476446277543  0.43453269270302464  0.966691071974831  1.0000
  C   C31       1.0  0.9060145946290397  0.3770187965441665  0.9714677027072747  1.0000
  C   C32       1.0  0.9420439966035271  0.3484469879433225  0.09290156333751765  1.0000
  C   C33       1.0  0.7192730428017403  0.524262518804357  0.07537695512243592  1.0000
  C   C34       1.0  0.7000862555198415  0.6250009394370568  0.9795961834505067  1.0000
  C   C35       1.0  0.6275655945134392  0.6821857268094533  0.9740159181508461  1.0000
  C   C36       1.0  0.5732803579079563  0.6394865110213195  0.06389100285930316  1.0000
  C   C37       1.0  0.5917830813438006  0.539339480515646  0.1594926544846289  1.0000
  C   C38       1.0  0.6642821081305212  0.482068146754566  0.1653219442434306  1.0000
  C   C39       1.0  0.4986307273601991  0.6984038876838483  0.05801837718402858  1.0000
  C   C40       1.0  0.43611271514126143  0.7477463036520446  0.053100050930775966  1.0000
  C   C41       1.0  0.362904772914968  0.8055258265003649  0.04734074057729187  1.0000
  C   C42       1.0  0.3003968636852085  0.8548605063670294  0.04242331565539281  1.0000
  H   H21       1.0  0.9340970069136821  0.35450927772138074  0.5387932164727107  1.0000
  H   H22       1.0  0.8055464454711924  0.45788306280590585  0.2906202230106041  1.0000
  H   H23       1.0  0.8045087914464923  0.455295458910167  0.8736052456950665  1.0000
  H   H24       1.0  0.9982134482561023  0.30411412883340283  0.09737032344133678  1.0000
  H   H25       1.0  0.04335768576878296  0.2677151593288756  0.7732444886550787  1.0000
  H   H26       1.0  0.7414506720080071  0.6607035854029157  0.9100807351727682  1.0000
  H   H27       1.0  0.6139035345818405  0.7598943005097187  0.8998246646318226  1.0000
  H   H28       1.0  0.550125636758177  0.5052921738700915  0.22933224373468142  1.0000
  H   H29       1.0  0.6770524859054451  0.403641035500776  0.23909795725606187  1.0000
  H   H30       1.0  0.245509758483385  0.8981803661764165  0.03810541794885847  1.0000
  Zn  Zn1       1.0  0.8233676412158699  0.38084554288088834  0.5880401229544581  1.0000
  Zn  Zn2       1.0  0.9887418795130526  0.3728501448884458  0.5921546830920117  1.0000
  C   C43       1.0  0.906030432027197  0.371780657938382  0.8272934157518028  1.0000
  C   C44       1.0  0.9060808942628988  0.38191658119668537  0.3529015627156744  1.0000
  C   C45       1.0  0.9060108267470187  0.6140377640718211  0.5849258914882938  1.0000
  C   C46       1.0  0.9061004433955877  0.13965791752134815  0.5952691547917341  1.0000
  O   O2        1.0  0.9688324263039455  0.3806351147198026  0.4028490149490982  1.0000
  O   O3        1.0  0.9687941205800151  0.36699282245079656  0.7804684455973814  1.0000
  O   O4        1.0  0.9687774428965751  0.5626185409204405  0.5847549339339513  1.0000
  O   O5        1.0  0.9688490475658021  0.18500940822503442  0.5985624278337225  1.0000
  O   O6        1.0  0.8432604167290094  0.5686862822741476  0.5816323768018186  1.0000
  O   O7        1.0  0.8432770941258285  0.37306212407624906  0.7773458192417695  1.0000
  O   O8        1.0  0.8433154000875888  0.3867043703873607  0.3997248271894056  1.0000
  O   O9        1.0  0.8433320213369181  0.19107865464756446  0.5954383374419072  1.0000
