data_image0
_chemical_formula_structural       NC9NC3OCH8C12NH11C13NH9Zn2C4O8
_chemical_formula_sum              "N4 C42 O9 H28 Zn2"
_cell_length_a       17.728193572023454
_cell_length_b       10.299770795358612
_cell_length_c       10.298528502251457
_cell_angle_alpha    85.53666946162151
_cell_angle_beta     90.70114426090622
_cell_angle_gamma    88.47103896228896

_space_group_name_H-M_alt    "P 1"
_space_group_IT_number       1

loop_
  _space_group_symop_operation_xyz
  'x, y, z'

loop_
  _atom_site_type_symbol
  _atom_site_label
  _atom_site_symmetry_multiplicity
  _atom_site_fract_x
  _atom_site_fract_y
  _atom_site_fract_z
  _atom_site_occupancy
  N   N1        1.0  0.7108894280297331  0.3873921331179748  0.5849110691239585  1.0000
  C   C1        1.0  0.6502671469570798  0.34996011575235264  0.5979203902271757  1.0000
  C   C2        1.0  0.5748007608140736  0.3034271162647906  0.6141116536788123  1.0000
  C   C3        1.0  0.562869377700572  0.1753874800665205  0.6235413499443241  1.0000
  C   C4        1.0  0.4861458281037752  0.1259314532765643  0.6384971272416418  1.0000
  C   C5        1.0  0.42801832216174035  0.20859413287092043  0.6559640874167731  1.0000
  C   C6        1.0  0.3499574308503037  0.1635392286891888  0.6777040437001149  1.0000
  C   C7        1.0  0.2886389438361713  0.24901911327598203  0.642232317584015  1.0000
  C   C8        1.0  0.2143535062831499  0.20970989401094342  0.6623855006349888  1.0000
  C   C9        1.0  0.1520569713833031  0.2977272770817305  0.6248389913930887  1.0000
  N   N2        1.0  0.1019839645083767  0.36848472515416897  0.5946551471725556  1.0000
  C   C10       1.0  0.20075503342698323  0.08480057180701128  0.7190646424792349  1.0000
  C   C11       1.0  0.2611748960152628  0.9996377427840035  0.7559450964526344  1.0000
  C   C12       1.0  0.3353565708560801  0.03845729661969899  0.7359215453421126  1.0000
  O   O1        1.0  0.4414090393560117  0.3423785212064636  0.6546601233375284  1.0000
  C   C13       1.0  0.5091494911579592  0.39977512769710133  0.6060406720763383  1.0000
  H   H1        1.0  0.6097787315260166  0.10592836475355649  0.6214442183527922  1.0000
  H   H2        1.0  0.47846690635606787  0.02228423179798411  0.636520745410482  1.0000
  H   H3        1.0  0.2985559334745032  0.3458588212223066  0.5977939114089261  1.0000
  H   H4        1.0  0.1435320290882725  0.053507029739139345  0.7352088451268401  1.0000
  H   H5        1.0  0.2505213639809951  0.9034567314298643  0.8008446582246458  1.0000
  H   H6        1.0  0.38086953232039716  0.9712162596043653  0.7683501460925093  1.0000
  H   H7        1.0  0.4996919395992871  0.43574043313626953  0.5024986871886652  1.0000
  H   H8        1.0  0.5220516294571192  0.484140159032858  0.6626251450653684  1.0000
  C   C14       1.0  0.9063719371157312  0.9965730142291973  0.5898210943524425  1.0000
  C   C15       1.0  0.8844726148161873  0.006852134900017681  0.45784864718887874  1.0000
  C   C16       1.0  0.8734452743350445  0.8949211543647979  0.39094379276912194  1.0000
  C   C17       1.0  0.8846107423535139  0.7715638672721148  0.45778352720809323  1.0000
  C   C18       1.0  0.9065086989914943  0.7592935206215644  0.5897564909624982  1.0000
  C   C19       1.0  0.9172670344769719  0.8723590224521519  0.6550361275628704  1.0000
  C   C20       1.0  0.8502773927770847  0.9068492566246448  0.2513246117236778  1.0000
  C   C21       1.0  0.7953292589880474  0.0006991300954251045  0.20476277631295825  1.0000
  C   C22       1.0  0.7735560065789792  0.011795070678892516  0.0733529482933657  1.0000
  C   C23       1.0  0.8063188421528343  0.9294812165251763  0.9864142907808766  1.0000
  C   C24       1.0  0.8610859136952594  0.835838483970046  0.03208094492581837  1.0000
  C   C25       1.0  0.8829196193585521  0.8244836053071402  0.16346230237042914  1.0000
  N   N3        1.0  0.784015473213361  0.9409638654832363  0.8520063764786983  1.0000
  H   H9        1.0  0.9146844980963735  0.32010999739060453  0.6401250499458409  1.0000
  H   H10       1.0  0.87694054166016  0.10213921708813678  0.4063023263815351  1.0000
  H   H11       1.0  0.8751843536195032  0.6850079599591178  0.4071302304296096  1.0000
  H   H12       1.0  0.9341607960355987  0.8636611379898669  0.7568470110774308  1.0000
  H   H13       1.0  0.9148856454591121  0.42716392780456197  0.6400304253427305  1.0000
  H   H14       1.0  0.768482876302187  0.06438536480933443  0.2703054054617313  1.0000
  H   H15       1.0  0.7310108519823775  0.08434437859962318  0.039377256536357486  1.0000
  H   H16       1.0  0.8869990407865125  0.77185204930488  0.965825704557937  1.0000
  H   H17       1.0  0.9260433345246358  0.7524170930873453  0.1960126863949696  1.0000
  H   H18       1.0  0.808117286206764  0.8800260752600543  0.7864589864082774  1.0000
  H   H19       1.0  0.74323667545035  0.010488111424316715  0.8170513975640841  1.0000
  C   C26       1.0  0.9064510707477509  0.3780592169968273  0.20837219823144637  1.0000
  C   C27       1.0  0.8280011707106214  0.40171377450002854  0.20392576210819113  1.0000
  C   C28       1.0  0.788257733672823  0.4135591227340034  0.08452643226904555  1.0000
  C   C29       1.0  0.8279785961417883  0.401450006953997  0.9686655196477107  1.0000
  C   C30       1.0  0.9064295723334223  0.3778072770470866  0.9712054045822991  1.0000
  C   C31       1.0  0.9451634629585367  0.3662605155166514  0.09151305022008227  1.0000
  C   C32       1.0  0.705320409354624  0.43856102480642756  0.0808333271788706  1.0000
  C   C33       1.0  0.6720173223992375  0.5281019423550275  0.1609117980855026  1.0000
  C   C34       1.0  0.5939484956674599  0.5515891873068952  0.15731600588308225  1.0000
  C   C35       1.0  0.5481439830635362  0.48594517583924834  0.07383178419373437  1.0000
  C   C36       1.0  0.5807022994507369  0.39667659801114485  0.9938387436124532  1.0000
  C   C37       1.0  0.6587630538863156  0.3730953788618252  0.9971977328693238  1.0000
  C   C38       1.0  0.46777205346879674  0.5101760131926811  0.07025057235707877  1.0000
  N   N4        1.0  0.40315844169456266  0.5296560954874983  0.0673715545430087  1.0000
  H   H20       1.0  0.05462795832284684  0.3325560630265385  0.424160063419573  1.0000
  H   H21       1.0  0.7975254298432026  0.4091949325472881  0.29368154999668317  1.0000
  H   H22       1.0  0.7977873156732735  0.4122567963514423  0.8762085097660819  1.0000
  H   H23       1.0  0.005626318189755786  0.34803420355352555  0.09420512502164313  1.0000
  H   H24       1.0  0.054746196045791784  0.33394014703168584  0.7686186645113948  1.0000
  H   H25       1.0  0.7064493842865437  0.5812055087737178  0.22506781191812641  1.0000
  H   H26       1.0  0.569359240706691  0.6211681325258074  0.21940431705843944  1.0000
  H   H27       1.0  0.5457489143429501  0.345048393593703  0.9290978831495242  1.0000
  H   H28       1.0  0.6826111654567202  0.3024220783767544  0.935637836945217  1.0000
  Zn  Zn1       1.0  0.823750873779849  0.38193239080437014  0.5877305005120113  1.0000
  Zn  Zn2       1.0  0.9891225421527108  0.37393386033645504  0.5918463556806903  1.0000
  C   C39       1.0  0.9064310224464526  0.37268137782669664  0.8270140147296379  1.0000
  C   C40       1.0  0.9064441996298173  0.3831864245321204  0.3525630137517808  1.0000
  C   C41       1.0  0.9064791140866907  0.6151249992779839  0.5845928254896064  1.0000
  C   C42       1.0  0.9063960512780526  0.14074124549976008  0.5949842709667095  1.0000
  O   O2        1.0  0.9691995789097345  0.381866095903876  0.40251671470586015  1.0000
  O   O3        1.0  0.9691889128564615  0.3679300273135977  0.7801837788043045  1.0000
  O   O4        1.0  0.9692269014224616  0.5637063582262485  0.584426932152476  1.0000
  O   O5        1.0  0.9691615339179968  0.186089777042874  0.5982734625655914  1.0000
  O   O6        1.0  0.8437118255813295  0.5697764768288727  0.5813033922157389  1.0000
  O   O7        1.0  0.843673837293622  0.37400170622821727  0.7770601694812986  1.0000
  O   O8        1.0  0.8436845034329831  0.3879377300762188  0.39939154379193975  1.0000
  O   O9        1.0  0.8436464584337492  0.19216140189448994  0.5951483890323965  1.0000
