data_image0
_chemical_formula_structural       NC9NC3OCH8C13OH12C12IH9Zn2C4O8
_chemical_formula_sum              "N2 C42 O10 H29 I1 Zn2"
_cell_length_a       17.728193572023454
_cell_length_b       10.299150109392551
_cell_length_c       10.29977335064465
_cell_angle_alpha    85.52407015278276
_cell_angle_beta     90.71329701694225
_cell_angle_gamma    88.43520969070386

_space_group_name_H-M_alt    "P 1"
_space_group_IT_number       1

loop_
  _space_group_symop_operation_xyz
  'x, y, z'

loop_
  _atom_site_type_symbol
  _atom_site_label
  _atom_site_symmetry_multiplicity
  _atom_site_fract_x
  _atom_site_fract_y
  _atom_site_fract_z
  _atom_site_occupancy
  N   N1        1.0  0.7102085877141131  0.3874626423321521  0.5846907366512124  1.0000
  C   C1        1.0  0.6496015939183061  0.35002752553910943  0.5977090724093739  1.0000
  C   C2        1.0  0.5741542142221396  0.3034906739498313  0.6139115399716613  1.0000
  C   C3        1.0  0.5622708285800003  0.17543876795838598  0.6233763492677695  1.0000
  C   C4        1.0  0.48556720353332844  0.12597853996077957  0.6383443092272856  1.0000
  C   C5        1.0  0.4274115944313772  0.2086502612241714  0.6557857273002947  1.0000
  C   C6        1.0  0.3493698482084269  0.16359191565604814  0.6775357922793199  1.0000
  C   C7        1.0  0.2880157454047577  0.2490786039902413  0.6420441832692301  1.0000
  C   C8        1.0  0.2137471566115628  0.20976643859506927  0.6622060412749338  1.0000
  C   C9        1.0  0.1514138235444555  0.29779077878838844  0.6246391835400351  1.0000
  N   N2        1.0  0.1013112344975367  0.36855381970905854  0.5944389811134871  1.0000
  C   C10       1.0  0.200201321369514  0.08484740471138918  0.7189136464279948  1.0000
  C   C11       1.0  0.2606568562422936  0.999677870433239  0.7558137216725409  1.0000
  C   C12       1.0  0.33482187733824936  0.038500327925529376  0.7357816184780164  1.0000
  O   O1        1.0  0.4407532073939041  0.34244787644191166  0.6544440320498093  1.0000
  C   C13       1.0  0.508466707734419  0.3998478718439473  0.6058142552678569  1.0000
  H   H1        1.0  0.6092053370114671  0.10597265348275364  0.6212991455792922  1.0000
  H   H2        1.0  0.4779259587807893  0.02232092913344519  0.6363975232766241  1.0000
  H   H3        1.0  0.2978918653941754  0.34592581760924257  0.5975837705807976  1.0000
  H   H4        1.0  0.1429917424108986  0.053551522049752  0.7350647428294548  1.0000
  H   H5        1.0  0.2500440093402108  0.9034894407677209  0.8007350471542531  1.0000
  H   H6        1.0  0.3803634093617728  0.9712541541098887  0.7682253077218151  1.0000
  H   H7        1.0  0.49898332041150284  0.4358118253000023  0.5022747136700392  1.0000
  H   H8        1.0  0.5213449097344542  0.4842239743680603  0.6623679327349856  1.0000
  C   C14       1.0  0.9058346778641009  0.9966049366221525  0.5897108502108923  1.0000
  C   C15       1.0  0.9044575050140851  0.9848276559599772  0.7264868581433768  1.0000
  C   C16       1.0  0.9036935606925708  0.8617249770546556  0.7955698664175177  1.0000
  C   C17       1.0  0.9043119711674513  0.7495794528006785  0.7261198367704458  1.0000
  C   C18       1.0  0.9056923993415118  0.7594011448286752  0.5894303086986656  1.0000
  C   C19       1.0  0.9064477611417322  0.8833743597415734  0.5220246701695233  1.0000
  C   C20       1.0  0.9022300796049489  0.8502480445423155  0.9401730882116741  1.0000
  C   C21       1.0  0.8558323684121235  0.7595912836898977  0.007037838172831545  1.0000
  C   C22       1.0  0.854430232071413  0.7488741197548056  0.14310870218546523  1.0000
  C   C23       1.0  0.8998954327127827  0.8276316597014434  0.21478701234219277  1.0000
  C   C24       1.0  0.9455712066175027  0.9192767725739973  0.14854683781726474  1.0000
  C   C25       1.0  0.9469908606157964  0.9301688866906368  0.012476121720344291  1.0000
  C   C26       1.0  0.8968019456603039  0.8185463943944954  0.36079575626729343  1.0000
  O   O2        1.0  0.8404013583788001  0.9044369548285436  0.3996305103357277  1.0000
  H   H9        1.0  0.9079438705421885  0.22615164578181757  0.33152750536455766  1.0000
  H   H10       1.0  0.9029296128297445  0.07165819924415451  0.7794571997574855  1.0000
  H   H11       1.0  0.9047475235479749  0.6544191448702616  0.7789640551510961  1.0000
  H   H12       1.0  0.9075103912833865  0.8916664365007954  0.4165918938677524  1.0000
  H   H13       1.0  0.906172566658622  0.4357058997988277  0.5368534561997829  1.0000
  H   H14       1.0  0.8197371318388851  0.6983443491389578  0.954029620032494  1.0000
  H   H15       1.0  0.8177246165576701  0.6793030800320385  0.19256922970067403  1.0000
  H   H16       1.0  0.9802764407994804  0.9821436427530322  0.20226661370229015  1.0000
  H   H17       1.0  0.9837218372224718  0.00018387643632844508  0.9638228672651099  1.0000
  H   H18       1.0  0.9523161102719682  0.843678818645763  0.40234933850151966  1.0000
  H   H19       1.0  0.8845415427862285  0.7171058143808451  0.39830263813681077  1.0000
  H   H20       1.0  0.8406899849760227  0.8947149847232896  0.4962641061298476  1.0000
  C   C27       1.0  0.905727540348799  0.3781108910290736  0.20820043660671428  1.0000
  C   C28       1.0  0.9741237525310507  0.4438131979036135  0.20354293855008487  1.0000
  C   C29       1.0  0.00881695520027237  0.4769954795240918  0.08405385576770175  1.0000
  C   C30       1.0  0.9741963839911322  0.4435955125301019  0.9682752133036865  1.0000
  C   C31       1.0  0.9057995394226972  0.37789524133815866  0.9709407366680494  1.0000
  C   C32       1.0  0.8719484041875766  0.345519753794685  0.09138093907208233  1.0000
  C   C33       1.0  0.08117414585267846  0.5465007321801623  0.08018062266921522  1.0000
  C   C34       1.0  0.09302621499678798  0.6489551503679842  0.160249241684137  1.0000
  C   C35       1.0  0.1611683193168627  0.7142584398500771  0.15640294694904244  1.0000
  C   C36       1.0  0.2182156918021254  0.6781380385912037  0.07284762220577723  1.0000
  C   C37       1.0  0.20709141041339074  0.5765347028705612  0.9929395620583321  1.0000
  C   C38       1.0  0.13902590526416891  0.5110017198195598  0.9963819064566688  1.0000
  I   I1        1.0  0.3209493292469707  0.7768183197016882  0.06735237827842355  1.0000
  H   H21       1.0  0.8796435312755574  0.3531413999339852  0.5374230732550358  1.0000
  H   H22       1.0  0.001104824073434818  0.4677577603473282  0.293183139800655  1.0000
  H   H23       1.0  0.00018082852339995625  0.4705292222434818  0.8757998377833083  1.0000
  H   H24       1.0  0.8191834164672268  0.2948345717908498  0.09420561635747804  1.0000
  H   H25       1.0  0.8797489707605447  0.352824135423087  0.6445059750521378  1.0000
  H   H26       1.0  0.04926144034237501  0.6796512893749953  0.2245387242634045  1.0000
  H   H27       1.0  0.16950547799162097  0.7931387194955477  0.2181678230046662  1.0000
  H   H28       1.0  0.2512264028421185  0.5480570741022825  0.9283673542872868  1.0000
  H   H29       1.0  0.13200028217594695  0.43151710038368396  0.9348108268863045  1.0000
  Zn  Zn1       1.0  0.8230723761119454  0.38200249179022383  0.5875113704449009  1.0000
  Zn  Zn2       1.0  0.9884474746775177  0.374003362572086  0.591628988922343  1.0000
  C   C39       1.0  0.9057852077905457  0.3727619401937541  0.8267683185818211  1.0000
  C   C40       1.0  0.9057364485962152  0.383245465548826  0.35237221261379137  1.0000
  C   C41       1.0  0.9057149194976364  0.615218114224281  0.584308033663167  1.0000
  C   C42       1.0  0.9058066807557565  0.14078773378574283  0.5948325659401872  1.0000
  O   O3        1.0  0.9684984273883783  0.38192738156252104  0.4023201945043484  1.0000
  O   O4        1.0  0.9685391024378158  0.36800789048606863  0.7799451403535931  1.0000
  O   O5        1.0  0.9684814978586612  0.5637943578324549  0.5841567232732199  1.0000
  O   O6        1.0  0.9685559755252897  0.18614092626428191  0.5981085128012613  1.0000
  O   O7        1.0  0.8429638188297676  0.5698649308291539  0.5810318451540097  1.0000
  O   O8        1.0  0.8430214231078845  0.3740800239464497  0.776820192414668  1.0000
  O   O9        1.0  0.842980747969698  0.3879994702019125  0.3991936851776525  1.0000
  O   O10       1.0  0.8430382961144468  0.19221300558665155  0.594982100846053  1.0000
