data_image0
_chemical_formula_structural       NC9NC3OCH8C12SCH12C15H12Zn2C4O8
_chemical_formula_sum              "N2 C45 O9 H32 S1 Zn2"
_cell_length_a       17.728193572023454
_cell_length_b       10.299776766347529
_cell_length_c       10.299157797200024
_cell_angle_alpha    85.5458752322557
_cell_angle_beta     90.72660703466438
_cell_angle_gamma    88.43488659094774

_space_group_name_H-M_alt    "P 1"
_space_group_IT_number       1

loop_
  _space_group_symop_operation_xyz
  'x, y, z'

loop_
  _atom_site_type_symbol
  _atom_site_label
  _atom_site_symmetry_multiplicity
  _atom_site_fract_x
  _atom_site_fract_y
  _atom_site_fract_z
  _atom_site_occupancy
  N   N1        1.0  0.7100174102646234  0.3873468416088568  0.5851313797613253  1.0000
  C   C1        1.0  0.6494121746637552  0.34991502501229754  0.598136235111381  1.0000
  C   C2        1.0  0.5739669831969884  0.30338227587590305  0.6143219459227933  1.0000
  C   C3        1.0  0.5620848746068542  0.17534190356313206  0.623738426359177  1.0000
  C   C4        1.0  0.4853832709844682  0.12588605145904497  0.6386884345154169  1.0000
  C   C5        1.0  0.4272300190456852  0.20855016196134324  0.6561625434640317  1.0000
  C   C6        1.0  0.34919121049541096  0.16349574616798512  0.677896767397915  1.0000
  C   C7        1.0  0.28783231416209093  0.24897493843587326  0.6424355777927375  1.0000
  C   C8        1.0  0.21356644856011173  0.20966619338103443  0.6625836898855824  1.0000
  C   C9        1.0  0.15122804164855022  0.29768282212475916  0.6250480899453026  1.0000
  N   N2        1.0  0.1011213737103179  0.3684396637877294  0.5948730157514865  1.0000
  C   C10       1.0  0.2000282724410807  0.08475807942842684  0.7192471504561164  1.0000
  C   C11       1.0  0.2604887911171666  0.9995960026497246  0.7561170165367015  1.0000
  C   C12       1.0  0.3346511065445675  0.038415083256409854  0.7360984803472184  1.0000
  O   O1        1.0  0.44057145237787904  0.3423356662831718  0.6548718860881726  1.0000
  C   C13       1.0  0.5082783840126612  0.39973080165510155  0.6062609663229002  1.0000
  H   H1        1.0  0.6090191015879415  0.10588209629181189  0.6216345490277262  1.0000
  H   H2        1.0  0.47774176198586404  0.022237844215412972  0.6367019189442207  1.0000
  H   H3        1.0  0.2977024291629463  0.3458136895171964  0.5980093581387544  1.0000
  H   H4        1.0  0.142820874956596  0.053464918951416696  0.7353873102781172  1.0000
  H   H5        1.0  0.24988201147636593  0.9034159726258175  0.8010044298428958  1.0000
  H   H6        1.0  0.3801970205747847  0.9711747744486722  0.7685185269768551  1.0000
  H   H7        1.0  0.4987810099600176  0.4356922203973348  0.502728619214077  1.0000
  H   H8        1.0  0.5211642268747628  0.4840988658576073  0.6628504590239674  1.0000
  C   C14       1.0  0.9056441738515062  0.996524507295001  0.5900024679845026  1.0000
  C   C15       1.0  0.9102103293521205  0.9847031891929307  0.7266375621003709  1.0000
  C   C16       1.0  0.9124513800951297  0.8615781231316785  0.7958752009961945  1.0000
  C   C17       1.0  0.9100660309170984  0.7494223843180774  0.7266491590670141  1.0000
  C   C18       1.0  0.9055018907632549  0.7592516576944767  0.590013365726435  1.0000
  C   C19       1.0  0.9033160865955348  0.8832401356589482  0.522454858606269  1.0000
  C   C20       1.0  0.9172735408174828  0.8501368105912731  0.9404195067591972  1.0000
  C   C21       1.0  0.8740997805703752  0.7587424847270152  0.013390871018620132  1.0000
  C   C22       1.0  0.8786606621568142  0.7482082318514722  0.14942121165829558  1.0000
  C   C23       1.0  0.9262075607495827  0.8287982989627758  0.21428228282642425  1.0000
  C   C24       1.0  0.9695617275953013  0.9196097262886976  0.14268855206465736  1.0000
  C   C25       1.0  0.9651115020749169  0.9304885214352278  0.006650552079741745  1.0000
  S   S1        1.0  0.9321430190399747  0.8148168424472576  0.38882999792728623  1.0000
  C   C26       1.0  0.8563138368587749  0.9345389277938901  0.40647102299352555  1.0000
  H   H9        1.0  0.9039339509243307  0.32848101278033703  0.5379390342570685  1.0000
  H   H10       1.0  0.9109938456596701  0.0714813359544022  0.7796183054797612  1.0000
  H   H11       1.0  0.9128172081023255  0.6542606564335571  0.7794827659571948  1.0000
  H   H12       1.0  0.899794007751092  0.8915912667064142  0.4170467060505876  1.0000
  H   H13       1.0  0.9037250707960592  0.43554510720442163  0.5379529392152405  1.0000
  H   H14       1.0  0.8360995887576379  0.6966288457915544  0.9653276553032666  1.0000
  H   H15       1.0  0.8449332505872342  0.6777606042917274  0.2043056714307271  1.0000
  H   H16       1.0  0.0067591017804300435  0.9818176000377937  0.1923207925639855  1.0000
  H   H17       1.0  0.9997917094753053  0.0005207357180683214  0.9532029445836345  1.0000
  H   H18       1.0  0.8714099397686473  0.030152728319731814  0.3579667070011261  1.0000
  H   H19       1.0  0.8475934127951827  0.9456099821565485  0.511538848528337  1.0000
  H   H20       1.0  0.8032011736873883  0.9015860202056349  0.3630236980609981  1.0000
  C   C27       1.0  0.9054855026811867  0.37799856691914635  0.20861370041577576  1.0000
  C   C28       1.0  0.8268850472753675  0.36381917275518605  0.20683073684429454  1.0000
  C   C29       1.0  0.7871939027513923  0.3565130059509656  0.08878842301592882  1.0000
  C   C30       1.0  0.827109311056611  0.36359960153550897  0.9715690242434554  1.0000
  C   C31       1.0  0.9056605102006776  0.37777758221917956  0.9714020776383294  1.0000
  C   C32       1.0  0.9443899184833383  0.38488851268033186  0.09044327606474734  1.0000
  C   C33       1.0  0.7040956182532734  0.3415275669613398  0.08794972975275006  1.0000
  C   C34       1.0  0.6701550901463017  0.2561902422936042  0.005995650308254774  1.0000
  C   C35       1.0  0.5919561055495405  0.24218136508853272  0.0052386652530098665  1.0000
  C   C36       1.0  0.5463049708708226  0.3125680704407994  0.0869329568972328  1.0000
  C   C37       1.0  0.5798414687114143  0.39877046541534966  0.16790027340488578  1.0000
  C   C38       1.0  0.6580396916272929  0.41278357775477015  0.1688051902948169  1.0000
  C   C39       1.0  0.46206211388822005  0.29982564619875784  0.083771355032777  1.0000
  C   C40       1.0  0.42810492598202154  0.3952336930175673  0.9855164150964462  1.0000
  C   C41       1.0  0.4001971715344587  0.47368692967239157  0.9047240451089942  1.0000
  H   H21       1.0  0.05389992956671508  0.4039638231635512  0.4193350958336224  1.0000
  H   H22       1.0  0.7965322769486314  0.3566617502315299  0.29761227888613684  1.0000
  H   H23       1.0  0.7966473091250349  0.35983425089943477  0.8801778713762469  1.0000
  H   H24       1.0  0.004978836430928224  0.3958206370395314  0.09103023885254258  1.0000
  H   H25       1.0  0.9358770407556682  0.3831893222187306  0.6438655766031678  1.0000
  H   H26       1.0  0.7041766271890015  0.19918051816732096  0.9434699205968711  1.0000
  H   H27       1.0  0.5669833483940805  0.1762336298567455  0.9410562410575203  1.0000
  H   H28       1.0  0.54537928106413  0.45549231660505995  0.23007002224644202  1.0000
  H   H29       1.0  0.6823965305137026  0.48086829402579  0.23133107211615833  1.0000
  H   H30       1.0  0.4470193512066765  0.20031371494648065  0.059949519515468896  1.0000
  H   H31       1.0  0.4380368328831076  0.3164318746046224  0.18039454155256407  1.0000
  H   H32       1.0  0.3757177011192571  0.542565110528257  0.8337962414582463  1.0000
  Zn  Zn1       1.0  0.8228815796360165  0.38188716598344596  0.5879501056400975  1.0000
  Zn  Zn2       1.0  0.9882572343541849  0.3738887326208302  0.5920649280950574  1.0000
  C   C42       1.0  0.9056267324431571  0.3726457804468417  0.8272186516604407  1.0000
  C   C43       1.0  0.9055138871675728  0.3831316693959701  0.35279655450671443  1.0000
  C   C44       1.0  0.9055236931053515  0.6150816845877074  0.584835675630931  1.0000
  C   C45       1.0  0.9056168703812328  0.14069420766317986  0.5951795983530981  1.0000
  O   O2        1.0  0.9682826134206766  0.38181335596542687  0.40274719106256995  1.0000
  O   O3        1.0  0.9683743016859723  0.36789248841299194  0.7803906962525946  1.0000
  O   O4        1.0  0.9682902504034488  0.563662587554173  0.5846647071774547  1.0000
  O   O5        1.0  0.9683666082476126  0.18604326887199196  0.5984730813526069  1.0000
  O   O6        1.0  0.8427721493079922  0.5697326324631726  0.5815419509715296  1.0000
  O   O7        1.0  0.8428562002800648  0.3739640936448043  0.7772678708187777  1.0000
  O   O8        1.0  0.8427645117150918  0.38788491639121503  0.3996228041251273  1.0000
  O   O9        1.0  0.8428485065630189  0.19211481998092217  0.595348791789249  1.0000
