data_image0
_chemical_formula_structural       NC9NC3OCH8C12NCOCH13C12OCH12Zn2C4O8
_chemical_formula_sum              "N3 C44 O11 H33 Zn2"
_cell_length_a       17.728193572023454
_cell_length_b       10.299155265289647
_cell_length_c       10.299794127170987
_cell_angle_alpha    85.56075829467142
_cell_angle_beta     90.69834653510783
_cell_angle_gamma    88.43175330785003

_space_group_name_H-M_alt    "P 1"
_space_group_IT_number       1

loop_
  _space_group_symop_operation_xyz
  'x, y, z'

loop_
  _atom_site_type_symbol
  _atom_site_label
  _atom_site_symmetry_multiplicity
  _atom_site_fract_x
  _atom_site_fract_y
  _atom_site_fract_z
  _atom_site_occupancy
  N   N1        1.0  0.7103888663178517  0.38663125159540757  0.584853863701182  1.0000
  C   C1        1.0  0.649781065782648  0.3492038801031343  0.5978690758158445  1.0000
  C   C2        1.0  0.5743326801488017  0.3026766680078461  0.6140676593105827  1.0000
  C   C3        1.0  0.5624521879702046  0.17463079356788058  0.6235235639313412  1.0000
  C   C4        1.0  0.4857478568917134  0.12517949629645297  0.6384875101734733  1.0000
  C   C5        1.0  0.4275865829148286  0.207861066915495  0.6559334815604614  1.0000
  C   C6        1.0  0.3495428853992099  0.16281559218100172  0.6776794781091076  1.0000
  C   C7        1.0  0.28819155391487394  0.24828123047768913  0.6421952948034737  1.0000
  C   C8        1.0  0.2139210715537933  0.20898098632457374  0.6623535430312748  1.0000
  C   C9        1.0  0.15159075677862102  0.2969830554250328  0.6247943832982108  1.0000
  N   N2        1.0  0.10149059416026592  0.3677281924931528  0.5946003693237847  1.0000
  C   C10       1.0  0.2003704056343324  0.08409553932302405  0.7190500512812092  1.0000
  C   C11       1.0  0.26082293118314337  0.9989478757106711  0.7559426501837072  1.0000
  C   C12       1.0  0.3349898418298324  0.03775848962194117  0.7359141179634019  1.0000
  O   O1        1.0  0.44092379459091047  0.3416573678768493  0.6546006566012643  1.0000
  C   C13       1.0  0.5086431535764758  0.3990287582121692  0.6059771247502364  1.0000
  H   H1        1.0  0.6093894286608678  0.1051637428345924  0.6214418957088836  1.0000
  H   H2        1.0  0.4781105033799166  0.02152116109453872  0.6365340037031249  1.0000
  H   H3        1.0  0.2980714990153089  0.34510211534394486  0.5977435105082167  1.0000
  H   H4        1.0  0.1431593030280455  0.05280920565423597  0.7351982688846399  1.0000
  H   H5        1.0  0.25020616213045743  0.902786041139991  0.8008553672131069  1.0000
  H   H6        1.0  0.3805284643788326  0.9705315148433665  0.768351736227137  1.0000
  H   H7        1.0  0.4991752167063773  0.43493215001956154  0.5024452054175457  1.0000
  H   H8        1.0  0.5215093265856072  0.48343752665189155  0.6625334820824098  1.0000
  C   C14       1.0  0.9060276363330987  0.9957780274502709  0.5898480089513567  1.0000
  C   C15       1.0  0.8931455357125696  0.006073300510471613  0.4546086641172413  1.0000
  C   C16       1.0  0.8865409591936896  0.8941590458500971  0.3859199282622887  1.0000
  C   C17       1.0  0.8929651147364975  0.7708221885818113  0.45429639877096206  1.0000
  C   C18       1.0  0.9058591026673927  0.7585711237590888  0.5896176262548125  1.0000
  C   C19       1.0  0.9123143406694972  0.8715697858452094  0.656560420987955  1.0000
  C   C20       1.0  0.8729141838207146  0.9060238259035522  0.24285305470704444  1.0000
  C   C21       1.0  0.9111915739430738  0.9982681156224091  0.16239350202298164  1.0000
  C   C22       1.0  0.8983740900612622  0.009302477928875064  0.027758195746034886  1.0000
  C   C23       1.0  0.8474921800510983  0.927408075881453  0.9707424639904563  1.0000
  C   C24       1.0  0.8082929862961843  0.8370246112237304  0.051110888748708616  1.0000
  C   C25       1.0  0.8211379584354218  0.8257328933151792  0.1857095464868581  1.0000
  N   N3        1.0  0.8322463560571253  0.9383579543930415  0.8328084786851653  1.0000
  C   C26       1.0  0.8873556066833128  0.9726108948905112  0.7359691115382487  1.0000
  O   O2        1.0  0.9565850030129326  0.9718048269028029  0.7655513499831081  1.0000
  C   C27       1.0  0.8632898512610583  0.00019260895876449524  0.5968365449996496  1.0000
  H   H9        1.0  0.9110060680683665  0.31929307859654  0.6418617355232552  1.0000
  H   H10       1.0  0.8871783113646279  0.10139626113438105  0.4026529582433649  1.0000
  H   H11       1.0  0.8889091083371459  0.6842084294335071  0.4015695523125413  1.0000
  H   H12       1.0  0.9222531146088104  0.862913838602832  0.76087297171552  1.0000
  H   H13       1.0  0.93064772393534  0.5281426947076223  0.8449098143756284  1.0000
  H   H14       1.0  0.9514862575882399  0.06137708859120461  0.2034879489824022  1.0000
  H   H15       1.0  0.9273290471904133  0.08334650713569647  0.9689023728055814  1.0000
  H   H16       1.0  0.7679259378804569  0.7746230096089188  0.00914764664525336  1.0000
  H   H17       1.0  0.7897580288892054  0.7554225876048264  0.24533784253901048  1.0000
  H   H18       1.0  0.7790956738656174  0.9120519712637633  0.8004120688865779  1.0000
  H   H19       1.0  0.8088151494667186  0.05627028663628231  0.5910255871565826  1.0000
  H   H20       1.0  0.856309654660585  0.9069111398779909  0.5514408292096453  1.0000
  H   H21       1.0  0.9062544939696672  0.05819599897342487  0.542514784498942  1.0000
  C   C28       1.0  0.9059688357713017  0.37705984258550784  0.20838206136168425  1.0000
  C   C29       1.0  0.8320308873788451  0.3315072299473145  0.20936069292664183  1.0000
  C   C30       1.0  0.7945451690658085  0.30852896147347053  0.09270915727894735  1.0000
  C   C31       1.0  0.8319795320173592  0.33173619532523535  0.9740544543273373  1.0000
  C   C32       1.0  0.9059179028434914  0.3772892950109561  0.9710835713042973  1.0000
  C   C33       1.0  0.9424992976391858  0.39969312280952507  0.08875684668233341  1.0000
  C   C34       1.0  0.7163251701706163  0.26032967763157067  0.09479924690867025  1.0000
  C   C35       1.0  0.6622897971699656  0.31161198136840573  0.0022899001225735738  1.0000
  C   C36       1.0  0.5887751653321371  0.2662315671838049  0.0045236423886849675  1.0000
  C   C37       1.0  0.5682272241279727  0.16928368713299813  0.09872731585428918  1.0000
  C   C38       1.0  0.6215184029347078  0.11663265357048735  0.1920811156740232  1.0000
  C   C39       1.0  0.6951354767787371  0.1626477089444529  0.18939836095854212  1.0000
  O   O3        1.0  0.6037771528868361  0.018910103872228134  0.2884898792762123  1.0000
  C   C40       1.0  0.5314532948467403  0.9631278577825104  0.3027423067802373  1.0000
  H   H22       1.0  0.9341524156704986  0.3943585406627419  0.5354669868812068  1.0000
  H   H23       1.0  0.8030422857512048  0.3154782327328429  0.3009204709143267  1.0000
  H   H24       1.0  0.803695032787553  0.3125073228144257  0.8840241658592038  1.0000
  H   H25       1.0  0.9995396347088328  0.43483419289947234  0.08723349038164097  1.0000
  H   H26       1.0  0.9340763848746384  0.3947090096944603  0.6424937664261758  1.0000
  H   H27       1.0  0.6766247005550241  0.387990834934427  0.9293055767959442  1.0000
  H   H28       1.0  0.5475062662716843  0.3066243886567841  0.9331459341453758  1.0000
  H   H29       1.0  0.5109037155473568  0.13601747157421218  0.09813791761904112  1.0000
  H   H30       1.0  0.7360721060647654  0.12052080030917867  0.2605945415078439  1.0000
  H   H31       1.0  0.515909683116444  0.9154198636018963  0.21350878711554255  1.0000
  H   H32       1.0  0.5334089098174937  0.8885521042571001  0.3864850170668239  1.0000
  H   H33       1.0  0.4884551726850798  0.03946980745128337  0.3219258077909417  1.0000
  Zn  Zn1       1.0  0.8232523884397706  0.3811727686719819  0.58767399509404  1.0000
  Zn  Zn2       1.0  0.9886270992667148  0.373176073989538  0.5917908782953887  1.0000
  C   C41       1.0  0.9059269683665324  0.3720718683055675  0.8269181891865542  1.0000
  C   C42       1.0  0.9059543248560092  0.3822785258303294  0.3525468561245815  1.0000
  C   C43       1.0  0.905887399571477  0.6143855957139277  0.5844861635502485  1.0000
  C   C44       1.0  0.9059938375604288  0.13996324073551736  0.5949789500626772  1.0000
  O   O4        1.0  0.9687082970136577  0.38098959341782623  0.40249221563949855  1.0000
  O   O5        1.0  0.9686885754576912  0.36729051456628925  0.7800970752309326  1.0000
  O   O6        1.0  0.9686557770458555  0.5629619552393352  0.5843314778136257  1.0000
  O   O7        1.0  0.9687410389987594  0.18531816473523666  0.5982577142791528  1.0000
  O   O8        1.0  0.8431383922734534  0.569030680656575  0.5812071576985547  1.0000
  O   O9        1.0  0.8431711903416527  0.3733608004002722  0.7769726854023502  1.0000
  O   O10       1.0  0.8431909120621288  0.3870598335198747  0.3993662644994622  1.0000
  O   O11       1.0  0.843223654039692  0.19138839557712028  0.595131860505048  1.0000
