data_image0
_chemical_formula_structural       NC9NC3OCH8C12ClH9C13NH13Zn2C4O8
_chemical_formula_sum              "N3 C42 O9 H30 Cl1 Zn2"
_cell_length_a       17.728193572023454
_cell_length_b       10.299768534541528
_cell_length_c       10.299780419254978
_cell_angle_alpha    85.5745780732884
_cell_angle_beta     90.69152596638011
_cell_angle_gamma    88.47167022583639

_space_group_name_H-M_alt    "P 1"
_space_group_IT_number       1

loop_
  _space_group_symop_operation_xyz
  'x, y, z'

loop_
  _atom_site_type_symbol
  _atom_site_label
  _atom_site_symmetry_multiplicity
  _atom_site_fract_x
  _atom_site_fract_y
  _atom_site_fract_z
  _atom_site_occupancy
  N   N1        1.0  0.7110502623156232  0.3865888396666133  0.5852995067066238  1.0000
  C   C1        1.0  0.6504263224216963  0.3491644188302514  0.5983025531752488  1.0000
  C   C2        1.0  0.5749578721252581  0.3026408734353523  0.6144860132532648  1.0000
  C   C3        1.0  0.5630245496750881  0.17460760884913729  0.6239001061221099  1.0000
  C   C4        1.0  0.486299046151932  0.12516037026623006  0.6388479662308539  1.0000
  C   C5        1.0  0.42817028375094757  0.20783210947432273  0.6563210643992057  1.0000
  C   C6        1.0  0.3501067481655811  0.16278974984519756  0.6780524521573881  1.0000
  C   C7        1.0  0.2887926630432222  0.24824906365072197  0.6425960178148256  1.0000
  C   C8        1.0  0.21450479216411383  0.20895145225491119  0.662741526952662  1.0000
  C   C9        1.0  0.1522128986448806  0.2969470824508147  0.6252109341494556  1.0000
  N   N2        1.0  0.1021436229997079  0.36768704326989154  0.5950398852183134  1.0000
  C   C10       1.0  0.2008993709401862  0.08407489931752465  0.7193975137953754  1.0000
  C   C11       1.0  0.2613146839278869  0.9989334261952633  0.7562624753575906  1.0000
  C   C12       1.0  0.335498774713304  0.037741448858199966  0.7362465228538515  1.0000
  O   O1        1.0  0.4415621168767171  0.3416146212916731  0.6550319754362406  1.0000
  C   C13       1.0  0.50930816565505  0.3989835448957364  0.606426935936029  1.0000
  H   H1        1.0  0.6099336195583716  0.1051479163518132  0.621795715072766  1.0000
  H   H2        1.0  0.47861957791753407  0.021512932313701993  0.6368605591614795  1.0000
  H   H3        1.0  0.2987150924557704  0.3450630887369639  0.5981756461568153  1.0000
  H   H4        1.0  0.1436744187577865  0.05279065433718144  0.7355355905478811  1.0000
  H   H5        1.0  0.25065566781866544  0.9027783499562166  0.8011439977274253  1.0000
  H   H6        1.0  0.3810077915708461  0.9705191243329871  0.7686623385087041  1.0000
  H   H7        1.0  0.49986190360245597  0.43489063551969953  0.5029061914205963  1.0000
  H   H8        1.0  0.5222048940563774  0.4833794979194732  0.6630111975717943  1.0000
  C   C14       1.0  0.9065293942426541  0.9957758182086603  0.5901658939122922  1.0000
  C   C15       1.0  0.9115180342463123  0.0050712399628498606  0.45382681519444845  1.0000
  C   C16       1.0  0.9141183653773108  0.8926384321885967  0.3847519150961203  1.0000
  C   C17       1.0  0.9116621618971643  0.76977656004389  0.4538458940859993  1.0000
  C   C18       1.0  0.9066717466224125  0.7584896950388621  0.5901848665426643  1.0000
  C   C19       1.0  0.9041338651415284  0.8720448974468872  0.6575813811325952  1.0000
  C   C20       1.0  0.9193969340066097  0.903525832814923  0.24051656058339432  1.0000
  C   C21       1.0  0.876475488148207  0.9991244134081579  0.16498683434126926  1.0000
  C   C22       1.0  0.8815110639943062  0.009172902361982205  0.029238078692546576  1.0000
  C   C23       1.0  0.9293954389658037  0.9241480949051858  0.9673254516214569  1.0000
  C   C24       1.0  0.9723047222399619  0.8288620235195229  0.04134371647618629  1.0000
  C   C25       1.0  0.9674031571317706  0.8184148096330663  0.17711045239203638  1.0000
  Cl  Cl1       1.0  0.9356292336683462  0.9370055243417016  0.7970027093613408  1.0000
  H   H9        1.0  0.9045897569608159  0.3196894259024403  0.6421135770475868  1.0000
  H   H10       1.0  0.9144346031290959  0.09993137642917471  0.4011690293047401  1.0000
  H   H11       1.0  0.9126093824904332  0.6828856751899169  0.40092551407309474  1.0000
  H   H12       1.0  0.900284594753759  0.864105755679074  0.7627606852560143  1.0000
  H   H13       1.0  0.9048002108593768  0.4267336741658992  0.642142046442252  1.0000
  H   H14       1.0  0.8383136635668026  0.06495471036042333  0.21077794237186365  1.0000
  H   H15       1.0  0.848013110129467  0.0828938029811972  0.9722943396824908  1.0000
  H   H16       1.0  0.009625177263276274  0.763025414237965  0.9938422451091484  1.0000
  H   H17       1.0  0.0018589136482847213  0.744940607451026  0.23258380215617525  1.0000
  C   C26       1.0  0.9066519368813348  0.3770454222552899  0.20882252638817067  1.0000
  C   C27       1.0  0.9613072883618946  0.4734321288961967  0.2015241857144896  1.0000
  C   C28       1.0  0.9889434188011693  0.5223701319733738  0.0806806917898939  1.0000
  C   C29       1.0  0.961203676236088  0.4736093675819204  0.9662214328290815  1.0000
  C   C30       1.0  0.9065492207892217  0.37722009831305914  0.9715282424154212  1.0000
  C   C31       1.0  0.8795773259277776  0.32948140449941166  0.09329072664332272  1.0000
  C   C32       1.0  0.046766631682483295  0.6243362931046768  0.07405131386347419  1.0000
  C   C33       1.0  0.04168479634591682  0.7291585865792476  0.9781005726470133  1.0000
  C   C34       1.0  0.09613376866618562  0.8250427305131462  0.971947133052165  1.0000
  C   C35       1.0  0.1562877431355374  0.8184323911427593  0.06211969560333874  1.0000
  C   C36       1.0  0.16209294986222988  0.7132963018867189  0.15703167458093548  1.0000
  C   C37       1.0  0.10765957616531918  0.6173867053119066  0.1633582728372167  1.0000
  C   C38       1.0  0.2158984892233573  0.9197681605120247  0.053151007425875196  1.0000
  N   N3        1.0  0.2737426414010877  0.8843208958842592  0.9617131039530267  1.0000
  H   H18       1.0  0.8858563490282032  0.34026922974895024  0.5390611172856186  1.0000
  H   H19       1.0  0.9817706745000248  0.5119486106291691  0.2899045183907567  1.0000
  H   H20       1.0  0.9830870491834771  0.5097063731419713  0.8729597054855187  1.0000
  H   H21       1.0  0.8374134621910956  0.2551223906386506  0.09815250631063233  1.0000
  H   H22       1.0  0.8857090531886523  0.34051505455692666  0.6460947145890494  1.0000
  H   H23       1.0  0.9951451498526513  0.7377542304389744  0.9086399033879755  1.0000
  H   H24       1.0  0.0912881807174335  0.9046762679846347  0.8969888009831233  1.0000
  H   H25       1.0  0.20891293726914073  0.7053393620800092  0.22597281472265274  1.0000
  H   H26       1.0  0.11382022574813222  0.5366724617575014  0.23688344899069902  1.0000
  H   H27       1.0  0.1898411142988845  0.016053130791980674  0.019223428881963933  1.0000
  H   H28       1.0  0.2419249345624923  0.9298205185704627  0.150656122930251  1.0000
  H   H29       1.0  0.31183813796355886  0.9601704466566245  0.9527239547377415  1.0000
  H   H30       1.0  0.30400290275895814  0.8025557948835105  0.003237591944092122  1.0000
  Zn  Zn1       1.0  0.823911367932642  0.38113072095477696  0.5881178688544872  1.0000
  Zn  Zn2       1.0  0.9892825395665629  0.373134560891788  0.5922321600267939  1.0000
  C   C39       1.0  0.9065659662200272  0.3720136078608711  0.8273603894421446  1.0000
  C   C40       1.0  0.9066297474158685  0.38225322528673766  0.352989811869016  1.0000
  C   C41       1.0  0.9066416454599869  0.6143195749215202  0.5850062663670401  1.0000
  C   C42       1.0  0.9065540114457675  0.1399457006963869  0.5953440027370136  1.0000
  O   O2        1.0  0.9693797971671503  0.38096084484842185  0.40293502177761553  1.0000
  O   O3        1.0  0.969328809177964  0.3672361080396802  0.780537457480367  1.0000
  O   O4        1.0  0.9693890749383416  0.562901282034193  0.5848347673871837  1.0000
  O   O5        1.0  0.9693194749916442  0.1852956828502046  0.5986376130965283  1.0000
  O   O6        1.0  0.8438743760744971  0.56896960172647  0.5817124143739159  1.0000
  O   O7        1.0  0.8438141106111972  0.3733059879917673  0.7774150352633697  1.0000
  O   O8        1.0  0.8438650988524484  0.38703067918528844  0.39981103822571584  1.0000
  O   O9        1.0  0.8438047766590074  0.19136550792088491  0.5955137269080628  1.0000
