data_image0
_chemical_formula_structural       NC9NC3OCH8C12OCH12C12NCOH11Zn2C4O8
_chemical_formula_sum              "N3 C43 O11 H31 Zn2"
_cell_length_a       17.728193572023454
_cell_length_b       10.29979075500242
_cell_length_c       10.299148425239203
_cell_angle_alpha    85.53236164649607
_cell_angle_beta     90.68912747422073
_cell_angle_gamma    88.43583692371088

_space_group_name_H-M_alt    "P 1"
_space_group_IT_number       1

loop_
  _space_group_symop_operation_xyz
  'x, y, z'

loop_
  _atom_site_type_symbol
  _atom_site_label
  _atom_site_symmetry_multiplicity
  _atom_site_fract_x
  _atom_site_fract_y
  _atom_site_fract_z
  _atom_site_occupancy
  N   N1        1.0  0.7105647001548273  0.38751393478664764  0.5849819621446741  1.0000
  C   C1        1.0  0.6499542177345482  0.35008042219734103  0.5979908095472959  1.0000
  C   C2        1.0  0.5745024966075465  0.30354556259931376  0.6141814830430266  1.0000
  C   C3        1.0  0.5626157040145394  0.17550330729401153  0.6236115639667406  1.0000
  C   C4        1.0  0.4859080124684473  0.1260454638323001  0.6385668430314024  1.0000
  C   C5        1.0  0.4277488762469933  0.2087081582563841  0.6560322082094681  1.0000
  C   C6        1.0  0.3497014524565263  0.16365102162903167  0.6777712466462771  1.0000
  C   C7        1.0  0.2883567175363558  0.24913473082987525  0.642300931787398  1.0000
  C   C8        1.0  0.21408288696063432  0.20982347944878765  0.6624532462565287  1.0000
  C   C9        1.0  0.151759448284686  0.2978448733755694  0.624908248582851  1.0000
  N   N2        1.0  0.10166481339115  0.3686055457939268  0.5947256195217816  1.0000
  C   C10       1.0  0.2005221847005907  0.08490822367034534  0.7191300488570764  1.0000
  C   C11       1.0  0.2609680119586631  0.9997414746174441  0.756009008746831  1.0000
  C   C12       1.0  0.3351382390591333  0.03856304389479481  0.7359863223396985  1.0000
  O   O1        1.0  0.4410919706274488  0.3424946749084872  0.65472735346577  1.0000
  C   C13       1.0  0.508817790909971  0.3998956142690542  0.606110267748206  1.0000
  H   H1        1.0  0.6095501177618081  0.1060432843837531  0.6215150533977107  1.0000
  H   H2        1.0  0.47826634611749513  0.02239680599181404  0.6365913219761621  1.0000
  H   H3        1.0  0.2982444842642483  0.345979074265806  0.5978643675496191  1.0000
  H   H4        1.0  0.14330840838977904  0.05361305670923522  0.7352735542912301  1.0000
  H   H5        1.0  0.2503434119346865  0.9035558049816556  0.8009066974643171  1.0000
  H   H6        1.0  0.3806713017880125  0.9713186763072388  0.7684135542248831  1.0000
  H   H7        1.0  0.49935988979836743  0.4358688345843367  0.5025739430234453  1.0000
  H   H8        1.0  0.5216829703351462  0.484257902878761  0.6626908970546843  1.0000
  C   C14       1.0  0.9061861950678375  0.9966885202004072  0.5898945263018864  1.0000
  C   C15       1.0  0.8843217752168818  0.986523623162928  0.720797470289998  1.0000
  C   C16       1.0  0.8731830261895936  0.8642396163911228  0.7870923419869298  1.0000
  C   C17       1.0  0.8841862064608013  0.7512479122067811  0.7207283029127196  1.0000
  C   C18       1.0  0.906050592950688  0.7594205964851567  0.5898244255106466  1.0000
  C   C19       1.0  0.9169299155619327  0.8825875675402111  0.5251412254121555  1.0000
  C   C20       1.0  0.8500563059538493  0.8545396117648347  0.9255816778087791  1.0000
  C   C21       1.0  0.7949866609011161  0.7663166570490308  0.9692785473231029  1.0000
  C   C22       1.0  0.7732883837301675  0.7574577149894665  0.09948655739678869  1.0000
  C   C23       1.0  0.8061713028361526  0.8361760851547709  0.18766033045034403  1.0000
  C   C24       1.0  0.8614415734422248  0.9249976292752835  0.1458403015640506  1.0000
  C   C25       1.0  0.8829059794203828  0.9335069146072084  0.015099726814888359  1.0000
  O   O2        1.0  0.8963117933743584  0.00597602187186852  0.23058358975822857  1.0000
  C   C26       1.0  0.8801126437518607  0.007678642837286587  0.3655259920348203  1.0000
  H   H9        1.0  0.9145504986353101  0.3280116540406468  0.540037001726221  1.0000
  H   H10       1.0  0.8749033636032029  0.0739836261487683  0.7709952664819633  1.0000
  H   H11       1.0  0.8766554551254686  0.656689784597516  0.7719123089547331  1.0000
  H   H12       1.0  0.9337979724970353  0.889660931587525  0.42415514922041675  1.0000
  H   H13       1.0  0.914344374684563  0.43508512030210206  0.5399275061483075  1.0000
  H   H14       1.0  0.7680044863271018  0.7054206293014436  0.9023919683286132  1.0000
  H   H15       1.0  0.7306626300398914  0.6895339890117724  0.13210585812388098  1.0000
  H   H16       1.0  0.7882722789156761  0.8272486214243379  0.28788833818167114  1.0000
  H   H17       1.0  0.9261404037790093  0.0009743521934546528  0.9840085581784734  1.0000
  H   H18       1.0  0.8931411304342559  0.9104979232935952  0.4164768507383988  1.0000
  H   H19       1.0  0.9157176556970682  0.08057810306572954  0.40863043057989024  1.0000
  H   H20       1.0  0.8198669169420805  0.03549576872227256  0.3784616014979456  1.0000
  C   C27       1.0  0.9061751159033817  0.37820766977411724  0.20846468584613698  1.0000
  C   C28       1.0  0.982735136126025  0.4100650429107706  0.20639952192568867  1.0000
  C   C29       1.0  0.021432835366328895  0.42600898844451374  0.08821733678720789  1.0000
  C   C30       1.0  0.9825761085187913  0.4097325819837425  0.971138434738172  1.0000
  C   C31       1.0  0.9060616395621741  0.3779014801790195  0.9712542748554522  1.0000
  C   C32       1.0  0.8683100330362887  0.36231666141299335  0.09043438023555628  1.0000
  C   C33       1.0  0.10237855332605106  0.45968820578034775  0.08712416956695446  1.0000
  C   C34       1.0  0.15309832892105635  0.3998653118090161  0.004794749057514425  1.0000
  C   C35       1.0  0.22923166918379523  0.4316977630045946  0.003914273939676027  1.0000
  C   C36       1.0  0.2564280850446796  0.5226555782260507  0.08609275086734969  1.0000
  C   C37       1.0  0.20563308799011715  0.5843283185655463  0.16685173929909713  1.0000
  C   C38       1.0  0.12946562469811784  0.5526041853208599  0.16782819621161105  1.0000
  N   N3        1.0  0.3347950746733537  0.5550736522560047  0.08150658027150293  1.0000
  C   C39       1.0  0.3781966672900521  0.5896482492562252  0.19131475696936895  1.0000
  O   O3        1.0  0.35266478061707285  0.5767201310918411  0.3050400831070912  1.0000
  H   H21       1.0  0.7617920512945839  0.31730875427604244  0.41971851254863424  1.0000
  H   H22       1.0  0.012674047942207611  0.4208129748587899  0.29707074235224207  1.0000
  H   H23       1.0  0.01185347346182164  0.42370875155014187  0.8796335924926053  1.0000
  H   H24       1.0  0.8092933937715865  0.33776095888939794  0.09123884849658226  1.0000
  H   H25       1.0  0.8766343396971733  0.3656219789096997  0.6438257507068621  1.0000
  H   H26       1.0  0.13408511421278657  0.32727499893926626  0.942154645469985  1.0000
  H   H27       1.0  0.26737067245080626  0.3843160748345711  0.9399135163685091  1.0000
  H   H28       1.0  0.22421767226056732  0.6591038850816517  0.22707436635330858  1.0000
  H   H29       1.0  0.0914151942627377  0.6026478360009055  0.22993835330698364  1.0000
  H   H30       1.0  0.363821084884588  0.5447310536466436  0.9950474262531763  1.0000
  H   H31       1.0  0.4348537692597165  0.6239487192813444  0.1768991725755038  1.0000
  Zn  Zn1       1.0  0.8234277555718339  0.38205390878271106  0.5878012717322378  1.0000
  Zn  Zn2       1.0  0.9888017838728598  0.374054963748061  0.5919169492986354  1.0000
  C   C40       1.0  0.9060823319905851  0.3727857285236367  0.8270711725161888  1.0000
  C   C41       1.0  0.9061490130230204  0.38332469523647084  0.3526472207823599  1.0000
  C   C42       1.0  0.9060730913914697  0.615250288550393  0.5846620936809659  1.0000
  C   C43       1.0  0.9061581974586853  0.140858577600105  0.595056367599831  1.0000
  O   O4        1.0  0.9688988355516249  0.38200079199937975  0.40259807533847547  1.0000
  O   O5        1.0  0.9688475706777422  0.3680376379845187  0.7802436482212349  1.0000
  O   O6        1.0  0.9688392625605043  0.5638308769676794  0.5844965807981455  1.0000
  O   O7        1.0  0.9689070872507428  0.18620756507508096  0.5983450439750291  1.0000
  O   O8        1.0  0.8433223957599119  0.5699013101867552  0.5813731756445335  1.0000
  O   O9        1.0  0.8433307036065611  0.37410963154426713  0.7771201736740643  1.0000
  O   O10       1.0  0.8433819687709605  0.3880727409272884  0.399473039289991  1.0000
  O   O11       1.0  0.8433902204541595  0.19227950467519106  0.5952201053017703  1.0000
