data_image0
_chemical_formula_structural       NC9NC3OCH8C12NH11C13OH12Zn2C4O8
_chemical_formula_sum              "N3 C42 O10 H31 Zn2"
_cell_length_a       17.728193572023454
_cell_length_b       10.299770795358612
_cell_length_c       10.299153481560891
_cell_angle_alpha    85.5776922204699
_cell_angle_beta     90.72181207759093
_cell_angle_gamma    88.47103896228896

_space_group_name_H-M_alt    "P 1"
_space_group_IT_number       1

loop_
  _space_group_symop_operation_xyz
  'x, y, z'

loop_
  _atom_site_type_symbol
  _atom_site_label
  _atom_site_symmetry_multiplicity
  _atom_site_fract_x
  _atom_site_fract_y
  _atom_site_fract_z
  _atom_site_occupancy
  N   N1        1.0  0.7106089901687339  0.3863894735750355  0.5850686210589684  1.0000
  C   C1        1.0  0.6499892872423043  0.3489666739480779  0.5980764937417593  1.0000
  C   C2        1.0  0.5745261098328204  0.30244514676056555  0.6142659545046518  1.0000
  C   C3        1.0  0.5625965954667824  0.17441219196212954  0.6236946008948796  1.0000
  C   C4        1.0  0.4858760097587585  0.12496676207000901  0.6386487130589316  1.0000
  C   C5        1.0  0.42775196536379884  0.20764181785777835  0.6561137285129119  1.0000
  C   C6        1.0  0.3496953824083285  0.16260231749566167  0.6778512643319958  1.0000
  C   C7        1.0  0.2883698657193954  0.24805706863400623  0.6423834875359462  1.0000
  C   C8        1.0  0.2140884220606261  0.2087621288823367  0.6625344267894333  1.0000
  C   C9        1.0  0.15178444631200302  0.29675290841961166  0.6249920978679744  1.0000
  N   N2        1.0  0.1017054576980315  0.3674889697658945  0.5948116142299171  1.0000
  C   C10       1.0  0.20050118169801884  0.08389296661550505  0.7192072581409057  1.0000
  C   C11       1.0  0.2609283531383426  0.9987562691933585  0.7560836059505436  1.0000
  C   C12       1.0  0.3351060597749569  0.03756163536623869  0.7360622842046607  1.0000
  O   O1        1.0  0.4411424241425817  0.3414252822711574  0.6548099096132813  1.0000
  C   C13       1.0  0.5088732406950284  0.39878743950866635  0.6061958715020759  1.0000
  H   H1        1.0  0.6095055336893028  0.10495159072912341  0.6215977027919526  1.0000
  H   H2        1.0  0.4781966963379335  0.021318140228483218  0.6366725512724454  1.0000
  H   H3        1.0  0.2982780486945545  0.3448652898016189  0.5979500290052977  1.0000
  H   H4        1.0  0.14328137676646852  0.05261086350280708  0.7353496633393821  1.0000
  H   H5        1.0  0.2502837191576094  0.902607071369169  0.8009781687343758  1.0000
  H   H6        1.0  0.3806254478370878  0.9703435755965728  0.7684872744478399  1.0000
  H   H7        1.0  0.4993951695123724  0.434679380400224  0.5026654146814509  1.0000
  H   H8        1.0  0.521786592726573  0.4831925637040211  0.6627740445384906  1.0000
  C   C14       1.0  0.9060924723080452  0.9955738336786694  0.589978099619354  1.0000
  C   C15       1.0  0.884166996125176  0.0057594454323706135  0.458020345888807  1.0000
  C   C16       1.0  0.8731263966510083  0.8937810595438269  0.3911229404632759  1.0000
  C   C17       1.0  0.88430511075723  0.7704711316637844  0.457955233158293  1.0000
  C   C18       1.0  0.9062292213809124  0.7582942942963827  0.5899135034221654  1.0000
  C   C19       1.0  0.9170004937788733  0.8714060499341827  0.6551858719753931  1.0000
  C   C20       1.0  0.8499308458041208  0.9056102348025518  0.25151930421622426  1.0000
  C   C21       1.0  0.7949734845374021  0.9994271169414146  0.2049626528664541  1.0000
  C   C22       1.0  0.7731741897430957  0.010429947250873761  0.07356745563948008  1.0000
  C   C23       1.0  0.8059197960880178  0.9280544928169894  0.9866384776272823  1.0000
  C   C24       1.0  0.8606959177039244  0.8344441173141779  0.032300047378183816  1.0000
  C   C25       1.0  0.8825556601102464  0.823182328752489  0.16366677720000888  1.0000
  N   N3        1.0  0.7835897906120232  0.9394419072106476  0.8522455279160317  1.0000
  H   H9        1.0  0.9144150023679438  0.3191464596467033  0.6402764545148951  1.0000
  H   H10       1.0  0.8766247076818728  0.10101000453749931  0.40647976410069275  1.0000
  H   H11       1.0  0.8748686837126292  0.6838793340188881  0.40730757597230904  1.0000
  H   H12       1.0  0.933914431897274  0.8627803034497334  0.7569854201587574  1.0000
  H   H13       1.0  0.9146161309782768  0.42620032301451355  0.6401818404470161  1.0000
  H   H14       1.0  0.7681400908830591  0.06315979180558662  0.2704979846872486  1.0000
  H   H15       1.0  0.7306223019510644  0.08295518173648331  0.03959554663835552  1.0000
  H   H16       1.0  0.8865959145406166  0.7704107375789355  0.9660521836783666  1.0000
  H   H17       1.0  0.925685826008769  0.7511388800677531  0.196213537158332  1.0000
  H   H18       1.0  0.8076786136304043  0.8784576734638573  0.7867054357036576  1.0000
  H   H19       1.0  0.742804065581542  0.008941385843881156  0.8172944407883209  1.0000
  C   C26       1.0  0.906096011600957  0.3767897612943325  0.2085716729222784  1.0000
  C   C27       1.0  0.8280703447268479  0.35618035376863566  0.20730155160814845  1.0000
  C   C28       1.0  0.7886466000488092  0.34588710068395034  0.08949341197246952  1.0000
  C   C29       1.0  0.8282484473326831  0.3564890446407849  0.9719979926251794  1.0000
  C   C30       1.0  0.906225703985231  0.3770783575432939  0.9713199625672142  1.0000
  C   C31       1.0  0.9446941720503943  0.387104887431295  0.09012894340815159  1.0000
  C   C32       1.0  0.7061542300769453  0.3241109655778207  0.08912365215261642  1.0000
  C   C33       1.0  0.6584380366485211  0.3916535153742615  0.9952615058665844  1.0000
  C   C34       1.0  0.580807854689634  0.37120482915492814  0.9949914911805768  1.0000
  C   C35       1.0  0.5495870864421583  0.2820016597441992  0.08768180850252438  1.0000
  C   C36       1.0  0.5967972212067656  0.21557984282393705  0.1824497804727312  1.0000
  C   C37       1.0  0.6744309778366162  0.23599870898907227  0.18289803651247794  1.0000
  C   C38       1.0  0.4659546559743681  0.26275674744802724  0.08951683581789949  1.0000
  O   O2        1.0  0.4320753005594032  0.35198182882990436  0.1681722060857056  1.0000
  H   H20       1.0  0.05327749993848285  0.41652530308263747  0.41819499767190216  1.0000
  H   H21       1.0  0.79764446258339  0.34988706047026086  0.2980198548116624  1.0000
  H   H22       1.0  0.7983052894957814  0.34688386895612133  0.8810739149175504  1.0000
  H   H23       1.0  0.004839955739663004  0.4029897058659917  0.09032176877756459  1.0000
  H   H24       1.0  0.9362085311646418  0.38508412890754684  0.6435768604220944  1.0000
  H   H25       1.0  0.6810090436414776  0.46181872248037825  0.9232597790395878  1.0000
  H   H26       1.0  0.5450124194081302  0.4252148644020006  0.9226142632425223  1.0000
  H   H27       1.0  0.5735307494204962  0.14765463514411192  0.2558738657602597  1.0000
  H   H28       1.0  0.7097728374702412  0.18181009400464898  0.25578719631177194  1.0000
  H   H29       1.0  0.4539592055737813  0.16154934090340523  0.128045962238575  1.0000
  H   H30       1.0  0.4420706904763321  0.2772762263310917  0.9887897866097615  1.0000
  H   H31       1.0  0.37721351908018674  0.33527958762025634  0.16610383188090472  1.0000
  Zn  Zn1       1.0  0.8234709946648697  0.3809317289661158  0.5878877385396326  1.0000
  Zn  Zn2       1.0  0.9888434787049273  0.37293611478238065  0.5920031354608255  1.0000
  C   C39       1.0  0.9061985637835986  0.371850260031763  0.8271446116184176  1.0000
  C   C40       1.0  0.9061177157640521  0.38201913505680163  0.3527464346515752  1.0000
  C   C41       1.0  0.9061986131571719  0.6141221142439042  0.5847504128569485  1.0000
  C   C42       1.0  0.9061176096924228  0.13974572331174984  0.595140701380374  1.0000
  O   O3        1.0  0.9688829947108655  0.3807342010626844  0.40269457390414276  1.0000
  O   O4        1.0  0.9689471735251588  0.36706572801188764  0.780319589636975  1.0000
  O   O5        1.0  0.9689463676167245  0.5627033556486465  0.5845845379899051  1.0000
  O   O6        1.0  0.9688837441739836  0.18509658540757545  0.5984295267701154  1.0000
  O   O7        1.0  0.8434306727622997  0.5687712610708429  0.5814613458191287  1.0000
  O   O8        1.0  0.8434314789352759  0.37313519369691583  0.7771963280876555  1.0000
  O   O9        1.0  0.8433672998975997  0.38680362089897313  0.39956975093777114  1.0000
  O   O10       1.0  0.8433680493725203  0.1911659959921359  0.5953048011736273  1.0000
