data_image0
_chemical_formula_structural       NC9NC3OCH8C13OH12C12OCH12Zn2C4O8
_chemical_formula_sum              "N2 C43 O11 H32 Zn2"
_cell_length_a       17.728193572023454
_cell_length_b       10.299150109392551
_cell_length_c       10.299794127170987
_cell_angle_alpha    85.5569512017134
_cell_angle_beta     90.69834653510783
_cell_angle_gamma    88.43520969070386

_space_group_name_H-M_alt    "P 1"
_space_group_IT_number       1

loop_
  _space_group_symop_operation_xyz
  'x, y, z'

loop_
  _atom_site_type_symbol
  _atom_site_label
  _atom_site_symmetry_multiplicity
  _atom_site_fract_x
  _atom_site_fract_y
  _atom_site_fract_z
  _atom_site_occupancy
  N   N1        1.0  0.7104367214914032  0.3866367581520218  0.584762640666173  1.0000
  C   C1        1.0  0.6498276292693458  0.3492092380290728  0.597780315034889  1.0000
  C   C2        1.0  0.5743776378965498  0.3026818411660408  0.6139819594396514  1.0000
  C   C3        1.0  0.5624927266212846  0.17463545823338422  0.6234462878812872  1.0000
  C   C4        1.0  0.48578668888833104  0.12518396458215664  0.6384134874017635  1.0000
  C   C5        1.0  0.42762826840325  0.2078658635442594  0.6558540193730436  1.0000
  C   C6        1.0  0.3495830162861404  0.16282020992626212  0.6776029793518836  1.0000
  C   C7        1.0  0.2882346343768617  0.24828618762203303  0.6421131734736265  1.0000
  C   C8        1.0  0.21396279569267612  0.20898578740073503  0.6622740071671338  1.0000
  C   C9        1.0  0.1516355180294144  0.2969882059728908  0.6247090579959467  1.0000
  N   N2        1.0  0.1015377969547706  0.3677336239823945  0.5945103898742063  1.0000
  C   C10       1.0  0.2004078197486623  0.0840998444571075  0.7189787313212535  1.0000
  C   C11       1.0  0.2608574066963023  0.9989518427084044  0.7558769318776086  1.0000
  C   C12       1.0  0.3350256567680635  0.03776261074344922  0.7358458464031583  1.0000
  O   O1        1.0  0.4409700976337075  0.34166269583426057  0.6545123922866531  1.0000
  C   C13       1.0  0.5086914366105921  0.39903431400146294  0.6058850861139788  1.0000
  H   H1        1.0  0.6094275698773269  0.1051681316342179  0.6213691897240103  1.0000
  H   H2        1.0  0.4781457579383252  0.021525217734759128  0.6364668003565006  1.0000
  H   H3        1.0  0.2981179209426236  0.3451074569810537  0.5976550195722035  1.0000
  H   H4        1.0  0.1431956373939377  0.05281338654478507  0.7351290071750725  1.0000
  H   H5        1.0  0.250237318923317  0.9027896262621641  0.800795975155888  1.0000
  H   H6        1.0  0.3805619591915497  0.9705353689947325  0.7682878873630252  1.0000
  H   H7        1.0  0.4992247388320286  0.43493784838753946  0.502350804786083  1.0000
  H   H8        1.0  0.5215605227202744  0.4834434176432525  0.6624358904023784  1.0000
  C   C14       1.0  0.9060620024490126  0.9957819818599795  0.5897824991817224  1.0000
  C   C15       1.0  0.9046627826668242  0.9840845149488323  0.7265515582837458  1.0000
  C   C16       1.0  0.9038877028514416  0.8610221484791928  0.795631056833342  1.0000
  C   C17       1.0  0.9045173079803857  0.7488360976192785  0.7261845555571353  1.0000
  C   C18       1.0  0.9059197691469251  0.7585780263603757  0.5895019719222543  1.0000
  C   C19       1.0  0.9066859960656936  0.8825119076435479  0.5220997578998023  1.0000
  C   C20       1.0  0.9024009131626181  0.8496295971804636  0.9402269321397079  1.0000
  C   C21       1.0  0.8559924240371026  0.7590118543297162  0.007088285073723166  1.0000
  C   C22       1.0  0.8545683544264063  0.7483740926686532  0.14315223608034833  1.0000
  C   C23       1.0  0.9000220012370553  0.8271734595035549  0.2148269046596346  1.0000
  C   C24       1.0  0.945708452399117  0.9187799188368113  0.14859009543063395  1.0000
  C   C25       1.0  0.9471500396435539  0.9295926307657355  0.012526292332207034  1.0000
  C   C26       1.0  0.8969049790271861  0.8181733955832519  0.36082823069015957  1.0000
  O   O2        1.0  0.840498131969558  0.9040866175018637  0.3996610117801007  1.0000
  H   H9        1.0  0.9082128117145264  0.2251780316933727  0.3316122711993632  1.0000
  H   H10       1.0  0.903126352190232  0.07094596834452238  0.7795192087685483  1.0000
  H   H11       1.0  0.9049443423984687  0.6537066262029033  0.7790260892161021  1.0000
  H   H12       1.0  0.9077656209223058  0.8907424605618186  0.41667233805270976  1.0000
  H   H13       1.0  0.9064084113297548  0.43485210083415604  0.5369277905616778  1.0000
  H   H14       1.0  0.8199057318614347  0.6977339875649395  0.9540827599869883  1.0000
  H   H15       1.0  0.8178547663675378  0.67883191495384  0.19261025078044136  1.0000
  H   H16       1.0  0.9804050274874921  0.9816781364493806  0.20230714211175416  1.0000
  H   H17       1.0  0.9838888586709665  0.9995792295765219  0.9638755096790215  1.0000
  H   H18       1.0  0.9524124456146658  0.8433300678537219  0.4023797018173111  1.0000
  H   H19       1.0  0.8846385304167782  0.7167547021926768  0.39833320704300634  1.0000
  H   H20       1.0  0.8407711821922079  0.8944210365972617  0.4962896981571078  1.0000
  C   C27       1.0  0.9060163606180709  0.37706531113237296  0.20829146800596332  1.0000
  C   C28       1.0  0.8320768401218694  0.33151251759674194  0.20927309636446112  1.0000
  C   C29       1.0  0.7945903287868781  0.3085341578721521  0.09262307240012624  1.0000
  C   C30       1.0  0.8320254926623962  0.331741483883925  0.9739668427020911  1.0000
  C   C31       1.0  0.9059654356090825  0.3772947644690172  0.9709929628534701  1.0000
  C   C32       1.0  0.9425476036017361  0.3996986812371275  0.0886647643391747  1.0000
  C   C33       1.0  0.7163686664464903  0.26033468262241755  0.09471633294133208  1.0000
  C   C34       1.0  0.6623350632916747  0.3116171900103013  0.0022036124195110585  1.0000
  C   C35       1.0  0.588818865292984  0.2662365956120938  0.004440340150653421  1.0000
  C   C36       1.0  0.5682675782406571  0.169288330564201  0.09865039157712152  1.0000
  C   C37       1.0  0.6215569399641943  0.11663708791517502  0.1920076551779235  1.0000
  C   C38       1.0  0.695175601871711  0.1626523260230197  0.18932187324594074  1.0000
  O   O3        1.0  0.6038123173328975  0.01891415014348108  0.2884228477045747  1.0000
  C   C39       1.0  0.5314865341457489  0.9631316825326519  0.3026789449843832  1.0000
  H   H21       1.0  0.9342005375268893  0.3943640779057802  0.5353752554869924  1.0000
  H   H22       1.0  0.8030876853043003  0.31548345672830314  0.30083392886016447  1.0000
  H   H23       1.0  0.8037403298091284  0.31251253501188003  0.8839378192538456  1.0000
  H   H24       1.0  0.9995891534538052  0.43483989087844566  0.0871390961945342  1.0000
  H   H25       1.0  0.9341245188263548  0.39471454832927266  0.6424020119754723  1.0000
  H   H26       1.0  0.6766726026502762  0.3879963468901857  0.9292142643173151  1.0000
  H   H27       1.0  0.5475513602624722  0.3066295774920722  0.9330599745636823  1.0000
  H   H28       1.0  0.5109429215822684  0.13602198289942224  0.0980631818437867  1.0000
  H   H29       1.0  0.7361107772812874  0.12052525009438098  0.2605208252202027  1.0000
  H   H30       1.0  0.5159412759255594  0.9154234988952009  0.21344856391044043  1.0000
  H   H31       1.0  0.5334395753712302  0.8885556328538059  0.3864265614250513  1.0000
  H   H32       1.0  0.48849104668401055  0.03947393536873567  0.32185742364733705  1.0000
  Zn  Zn1       1.0  0.8233000552311205  0.3811782535520003  0.5875831311591002  1.0000
  Zn  Zn2       1.0  0.988674490077546  0.373181527113275  0.5917005404431823  1.0000
  C   C40       1.0  0.9059743210692117  0.3720773170443099  0.8268279239773046  1.0000
  C   C41       1.0  0.9060020298090556  0.3822840151015039  0.3524559194446175  1.0000
  C   C42       1.0  0.9059431149628422  0.6143920067231057  0.5843799571211443  1.0000
  C   C43       1.0  0.9060331797710306  0.13996776773007036  0.5949039547050439  1.0000
  O   O4        1.0  0.9687559574832957  0.3809950775704234  0.4024013637552051  1.0000
  O   O5        1.0  0.9687357631471323  0.3672959443174346  0.7800071245751006  1.0000
  O   O6        1.0  0.968709717713597  0.5629681620361908  0.5842286544184392  1.0000
  O   O7        1.0  0.9687819464905109  0.1853228718421709  0.5981797351334253  1.0000
  O   O8        1.0  0.8431925423839776  0.5690369115534064  0.5811039350569565  1.0000
  O   O9        1.0  0.8432185875277294  0.3733662542575902  0.7768823353974508  1.0000
  O   O10       1.0  0.8432387820268242  0.3870653417784631  0.39927501326910986  1.0000
  O   O11       1.0  0.8432647710261814  0.19139312679000908  0.5950534820138709  1.0000
