data_image0
_chemical_formula_structural       NC9NC3OCH8C12NCOCH13C13NH13Zn2C4O8
_chemical_formula_sum              "N4 C44 O10 H34 Zn2"
_cell_length_a       17.728193572023454
_cell_length_b       10.299155265289647
_cell_length_c       10.299780419254978
_cell_angle_alpha    85.55647119552991
_cell_angle_beta     90.69152596638011
_cell_angle_gamma    88.43175330785003

_space_group_name_H-M_alt    "P 1"
_space_group_IT_number       1

loop_
  _space_group_symop_operation_xyz
  'x, y, z'

loop_
  _atom_site_type_symbol
  _atom_site_label
  _atom_site_symmetry_multiplicity
  _atom_site_fract_x
  _atom_site_fract_y
  _atom_site_fract_z
  _atom_site_occupancy
  N   N1        1.0  0.7104850774750382  0.38673274801478796  0.5848461294767422  1.0000
  C   C1        1.0  0.6498763920781325  0.34930444305183395  0.5978614127236852  1.0000
  C   C2        1.0  0.5744269051555764  0.30277606916965905  0.6140600847488424  1.0000
  C   C3        1.0  0.5625457701009521  0.174729516537925  0.6235160410491316  1.0000
  C   C4        1.0  0.4858404216726996  0.1252771460296609  0.6384800690739965  1.0000
  C   C5        1.0  0.427677961601282  0.2079574653972711  0.655926135808776  1.0000
  C   C6        1.0  0.3496327856464842  0.16291043100704394  0.6776722512062205  1.0000
  C   C7        1.0  0.2882838666157105  0.24837861428298003  0.6421878739682212  1.0000
  C   C8        1.0  0.21401201376126594  0.2090769243498396  0.6623462323672709  1.0000
  C   C9        1.0  0.1516842525105165  0.2970816872499922  0.6247868673614339  1.0000
  N   N2        1.0  0.10158614268441381  0.36782898987842194  0.5945926883671029  1.0000
  C   C10       1.0  0.2004574932316505  0.08418741098904192  0.7190430504816838  1.0000
  C   C11       1.0  0.2609075105733293  0.9990371013837458  0.7559358510139873  1.0000
  C   C12       1.0  0.3350757828944152  0.03784915177161263  0.735907209331373  1.0000
  O   O1        1.0  0.4410152638917735  0.34175386195084556  0.6545933035652658  1.0000
  C   C13       1.0  0.5087379286322328  0.39912873963934703  0.6059695059711472  1.0000
  H   H1        1.0  0.6094831523174291  0.10526261510502755  0.6214343614496938  1.0000
  H   H2        1.0  0.47820320097341834  0.02161895093618238  0.6365265519271133  1.0000
  H   H3        1.0  0.298166833847568  0.345202687298378  0.5977358467298026  1.0000
  H   H4        1.0  0.14324529276086592  0.05289991914568515  0.7351913563402677  1.0000
  H   H5        1.0  0.2502876880519119  0.9028720456051308  0.8008488135056926  1.0000
  H   H6        1.0  0.3806122001158458  0.9706198505180383  0.7683450048770253  1.0000
  H   H7        1.0  0.49927703055870054  0.435039556912445  0.5024370208035365  1.0000
  H   H8        1.0  0.5216002565596121  0.48353345177165674  0.6625261724018299  1.0000
  C   C14       1.0  0.9061235079546842  0.9958791656820072  0.5898403020215113  1.0000
  C   C15       1.0  0.8932506018148734  0.006184138312384846  0.45460021806129536  1.0000
  C   C16       1.0  0.8866506952184791  0.8942748101119443  0.3859111068005199  1.0000
  C   C17       1.0  0.8930702020687007  0.7709330487798671  0.4542879510083859  1.0000
  C   C18       1.0  0.9059549899519441  0.7586722785142201  0.5896099180658525  1.0000
  C   C19       1.0  0.9124056767323895  0.8716661393619423  0.6565530786626934  1.0000
  C   C20       1.0  0.8730336464942978  0.906149851137765  0.24284345133923657  1.0000
  C   C21       1.0  0.9113165067984791  0.9983999115373261  0.16238345891808748  1.0000
  C   C22       1.0  0.8985081763307798  0.009443930091411312  0.027747416816303216  1.0000
  C   C23       1.0  0.8476301426337325  0.9275536172984296  0.9707313734515877  1.0000
  C   C24       1.0  0.8084254848924862  0.8371643884958352  0.0511002374488827  1.0000
  C   C25       1.0  0.8212613061092254  0.8258630169681535  0.1856996308115746  1.0000
  N   N3        1.0  0.83239369632027  0.9385133886438817  0.8327966342931266  1.0000
  C   C26       1.0  0.8875095307382903  0.9727732746071015  0.7359567378882201  1.0000
  O   O2        1.0  0.9567369158682749  0.9719650849365487  0.7655391380094363  1.0000
  C   C27       1.0  0.8634532344841638  0.00036496747327574575  0.5968234109458228  1.0000
  H   H9        1.0  0.9110984034468074  0.3193904863252064  0.641854312864995  1.0000
  H   H10       1.0  0.8872869097654388  0.10151082527803168  0.402644228232935  1.0000
  H   H11       1.0  0.8890177803951825  0.6843230712806686  0.4015608163809532  1.0000
  H   H12       1.0  0.9223373588025612  0.863002710665796  0.7608661994915775  1.0000
  H   H13       1.0  0.9307262547390236  0.5282255395212392  0.8449035014398019  1.0000
  H   H14       1.0  0.9516083965666071  0.06150593715028618  0.20347813047175123  1.0000
  H   H15       1.0  0.9274671348748287  0.08349218052679319  0.9688912722100285  1.0000
  H   H16       1.0  0.768061289420337  0.7747657965481598  0.009136766002942442  1.0000
  H   H17       1.0  0.7898773226301912  0.7555484346263012  0.24532825275135983  1.0000
  H   H18       1.0  0.779245216654703  0.9122097290340698  0.8004000474378397  1.0000
  H   H19       1.0  0.8089789277578415  0.05644306192147108  0.5910124213440207  1.0000
  H   H20       1.0  0.856476124189928  0.9070867542418376  0.5514274470537712  1.0000
  H   H21       1.0  0.9064215703515951  0.058372253526686624  0.5425013535593894  1.0000
  C   C28       1.0  0.9060906420149757  0.37718834013145375  0.20837226959891697  1.0000
  C   C29       1.0  0.9607067054933038  0.4735850503518948  0.2010424130664581  1.0000
  C   C30       1.0  0.988322888406191  0.522528132502972  0.08018291773204544  1.0000
  C   C31       1.0  0.9606030211235734  0.4737623074324919  0.9657396022287705  1.0000
  C   C32       1.0  0.9059878547234869  0.377363034318132  0.9710779285117983  1.0000
  C   C33       1.0  0.8790354185402616  0.3296193859019563  0.09285602200766752  1.0000
  C   C34       1.0  0.046104539054436566  0.6245048762824243  0.07352019961540335  1.0000
  C   C35       1.0  0.04097997730212799  0.7293380488313643  0.9775351843303168  1.0000
  C   C36       1.0  0.09538986646879466  0.8252321441858819  0.9713503932011687  1.0000
  C   C37       1.0  0.15554653536600838  0.8186211187555821  0.061525117155396325  1.0000
  C   C38       1.0  0.16139459641414522  0.7134741178575996  0.15647147280439255  1.0000
  C   C39       1.0  0.10700031624553952  0.6175545672205436  0.16282943091730195  1.0000
  C   C40       1.0  0.2151159761735475  0.9199674053472304  0.05252329490884877  1.0000
  N   N4        1.0  0.27297457694341687  0.8845164617937773  0.9610969817374535  1.0000
  H   H22       1.0  0.8853100444357481  0.3404083307754726  0.5386228853214661  1.0000
  H   H23       1.0  0.9811543920015471  0.5121055295519639  0.2894101518898875  1.0000
  H   H24       1.0  0.982471680639158  0.5098630593521671  0.872466072135957  1.0000
  H   H25       1.0  0.8369018641398388  0.25525265462522406  0.09774211507110242  1.0000
  H   H26       1.0  0.8851626483960149  0.34065418109659396  0.645656402246801  1.0000
  H   H27       1.0  0.9944368271548121  0.7379345847975853  0.9080717045270932  1.0000
  H   H28       1.0  0.09051181924524254  0.9048739464944366  0.8963660231087478  1.0000
  H   H29       1.0  0.20821782713416193  0.70551635223286  0.22541521465126224  1.0000
  H   H30       1.0  0.11319386560770428  0.5368319466670362  0.23638099845596572  1.0000
  H   H31       1.0  0.18901935471540798  0.016262368647921743  0.01856423377121108  1.0000
  H   H32       1.0  0.24113832409012703  0.9300208066985334  0.15002512356270348  1.0000
  H   H33       1.0  0.3110391566147117  0.9603738846788048  0.9520830317605924  1.0000
  H   H34       1.0  0.30326816641864385  0.8027428747297582  0.0026482047158011834  1.0000
  Zn  Zn1       1.0  0.8233484078654474  0.3812740628272775  0.5876662762825164  1.0000
  Zn  Zn2       1.0  0.9887228387989682  0.37327707287574885  0.5917831819839432  1.0000
  C   C41       1.0  0.9060067223619662  0.37215600350573097  0.8269117779207642  1.0000
  C   C42       1.0  0.9060663298068176  0.38239668365934154  0.3525378522683418  1.0000
  C   C43       1.0  0.905983635727394  0.6144871185053187  0.58447842731621  1.0000
  C   C44       1.0  0.9060893603461102  0.14006401096840326  0.5949712711750597  1.0000
  O   O3        1.0  0.9688169063428325  0.38110416909017975  0.4024834847505592  1.0000
  O   O4        1.0  0.9687715126675217  0.36737800784749863  0.7800904080728397  1.0000
  O   O5        1.0  0.9687520237183497  0.563063489125021  0.5843237407341804  1.0000
  O   O6        1.0  0.9688363388719858  0.18541869981019832  0.5982500533110262  1.0000
  O   O7        1.0  0.8432348513582533  0.5691324386232204  0.5811994035437049  1.0000
  O   O8        1.0  0.8432543399685284  0.3734485177674416  0.7769660011684716  1.0000
  O   O9        1.0  0.8432997339144975  0.387174633390168  0.399357516526204  1.0000
  O   O10       1.0  0.8433191664294928  0.19148915484303797  0.5951241824531346  1.0000
