data_image0
_chemical_formula_structural       NC9NC3OCH8C12ClH9C13F3H9Zn2C4O8
_chemical_formula_sum              "N2 C42 O9 H26 Cl1 F3 Zn2"
_cell_length_a       17.728193572023454
_cell_length_b       10.299768534541528
_cell_length_c       10.2985328690268
_cell_angle_alpha    85.58012551441328
_cell_angle_beta     90.71056303588647
_cell_angle_gamma    88.47167022583639

_space_group_name_H-M_alt    "P 1"
_space_group_IT_number       1

loop_
  _space_group_symop_operation_xyz
  'x, y, z'

loop_
  _atom_site_type_symbol
  _atom_site_label
  _atom_site_symmetry_multiplicity
  _atom_site_fract_x
  _atom_site_fract_y
  _atom_site_fract_z
  _atom_site_occupancy
  N   N1        1.0  0.7107791488958793  0.3864644211446471  0.585132017060281  1.0000
  C   C1        1.0  0.650157700907774  0.3490411438859047  0.5981366029894948  1.0000
  C   C2        1.0  0.57469235201211  0.3025190217761411  0.6143219790645844  1.0000
  C   C3        1.0  0.5627608336801428  0.17448658513020443  0.6237371864895438  1.0000
  C   C4        1.0  0.4860381947671931  0.1250406611652468  0.6386868163098387  1.0000
  C   C5        1.0  0.4279127809134243  0.207713937078146  0.6561619831584844  1.0000
  C   C6        1.0  0.34985340993454467  0.1626734886571941  0.6778959437456626  1.0000
  C   C7        1.0  0.2885325299356643  0.2481296841792544  0.6424353116342603  1.0000
  C   C8        1.0  0.21424851974502032  0.20883384451850917  0.6625832058452747  1.0000
  C   C9        1.0  0.1519494338572198  0.29682617401514255  0.6250481697088361  1.0000
  N   N2        1.0  0.1018743762275976  0.3675634813840143  0.5948735487577934  1.0000
  C   C10       1.0  0.20065395608310993  0.08396227429949743  0.7192459003206246  1.0000
  C   C11       1.0  0.2610763338777047  0.9988240433363023  0.756115226410458  1.0000
  C   C12       1.0  0.3352565888029106  0.03763030565827763  0.7360969041720493  1.0000
  O   O1        1.0  0.44130436699798725  0.3414963355241192  0.6548727415773112  1.0000
  C   C13       1.0  0.5090411010990876  0.39886098446566276  0.6062619476146429  1.0000
  H   H1        1.0  0.6096695002776027  0.10502670755821275  0.6216325462965022  1.0000
  H   H2        1.0  0.4783583456657991  0.02139304842642864  0.6366991739467687  1.0000
  H   H3        1.0  0.2984464466213677  0.34493980263153845  0.5980096809462472  1.0000
  H   H4        1.0  0.14343209660421694  0.05267944861296692  0.7353858876971673  1.0000
  H   H5        1.0  0.250425918870321  0.9026729142879882  0.8010020624069893  1.0000
  H   H6        1.0  0.3807718178323418  0.9704108320035431  0.7685165576098993  1.0000
  H   H7        1.0  0.49957500031512037  0.43475897076112235  0.5027289470400864  1.0000
  H   H8        1.0  0.5219486733170028  0.4832619138997656  0.6628529083913317  1.0000
  C   C14       1.0  0.9062592134181013  0.9956518276703599  0.5899989804087271  1.0000
  C   C15       1.0  0.9112217253797812  0.004935258825309319  0.45364376019366515  1.0000
  C   C16       1.0  0.9138088189863195  0.8924963761277657  0.38456068215898664  1.0000
  C   C17       1.0  0.9113658566869149  0.7696405805842783  0.45366284134401  1.0000
  C   C18       1.0  0.9064015694337778  0.7583657061691456  0.5900179552853126  1.0000
  C   C19       1.0  0.9038766038312974  0.8719268358916593  0.6574224491036718  1.0000
  C   C20       1.0  0.9190597463301338  0.9033710917018788  0.2403082512907837  1.0000
  C   C21       1.0  0.8761238259433973  0.9989630296898779  0.16476958291059018  1.0000
  C   C22       1.0  0.8811333868771216  0.008999579961545212  0.029004755654355785  1.0000
  C   C23       1.0  0.9290058969032615  0.9239693274811646  0.967084798604898  1.0000
  C   C24       1.0  0.9719293650490608  0.8286897657723943  0.04111182665230473  1.0000
  C   C25       1.0  0.9670538182989857  0.8182544921494033  0.17689463630439217  1.0000
  Cl  Cl1       1.0  0.9352070509293261  0.9368117775606006  0.7967418914434479  1.0000
  H   H9        1.0  0.9043295313982352  0.3195700040018028  0.6419528137497494  1.0000
  H   H10       1.0  0.9141282029163919  0.09979076420263544  0.40097974002753034  1.0000
  H   H11       1.0  0.9123029356104327  0.682745041546968  0.40073619596555643  1.0000
  H   H12       1.0  0.9000474900215192  0.8639969443175253  0.7626142056469023  1.0000
  H   H13       1.0  0.9045399907526754  0.4266142547690567  0.6419812865149719  1.0000
  H   H14       1.0  0.8379707767769666  0.0647973538281148  0.21056611225582  1.0000
  H   H15       1.0  0.8476245203053957  0.08271547255547396  0.9720542749440217  1.0000
  H   H16       1.0  0.009240716883109235  0.7628489788837127  0.9936047314767804  1.0000
  H   H17       1.0  0.0015202057367658117  0.7447851686764742  0.23237455368604287  1.0000
  C   C26       1.0  0.9063086753552796  0.37688789375020826  0.2086104647659297  1.0000
  C   C27       1.0  0.9819715200655313  0.3323402781618776  0.21270738246153598  1.0000
  C   C28       1.0  0.020310472414441394  0.3098863319011136  0.0976124689158484  1.0000
  C   C29       1.0  0.9820161187510338  0.33259373707966966  0.9774078220060396  1.0000
  C   C30       1.0  0.9063520959426858  0.3771297048838502  0.9714065255044773  1.0000
  C   C31       1.0  0.868981576517152  0.3989872030657611  0.08751724725563981  1.0000
  C   C32       1.0  0.10030411935726935  0.2628010668849079  0.10287832491024984  1.0000
  C   C33       1.0  0.15242170192364313  0.31488224345853144  0.012635932625530089  1.0000
  C   C34       1.0  0.22770646713729392  0.2706708153279087  0.017613297819347284  1.0000
  C   C35       1.0  0.2522433589154429  0.17208986046894847  0.11169400199481783  1.0000
  C   C36       1.0  0.2005629424148767  0.12180658385936183  0.20352464719397023  1.0000
  C   C37       1.0  0.12528309570487028  0.16605082893707968  0.19865832616331325  1.0000
  C   C38       1.0  0.33405465786633814  0.12784991322330086  0.12001449585943713  1.0000
  F   F1        1.0  0.37277053116637293  0.20529263736787562  0.2004651356600542  1.0000
  F   F2        1.0  0.36619497517559263  0.13746968858426167  0.9979580755294717  1.0000
  F   F3        1.0  0.3410194613490207  0.9993934539954704  0.1700714683246518  1.0000
  H   H18       1.0  0.7634780271065402  0.4618778792485796  0.40813434567713425  1.0000
  H   H19       1.0  0.011521458684802699  0.3167527780509545  0.3055221396664929  1.0000
  H   H20       1.0  0.010994816258905304  0.3138118965201733  0.8884986026824828  1.0000
  H   H21       1.0  0.8106664787764603  0.43331569407395576  0.08362654137379222  1.0000
  H   H22       1.0  0.7632361137481225  0.4605499599980041  0.7527940213939188  1.0000
  H   H23       1.0  0.13523920112195031  0.39147615885750664  0.9394801953640273  1.0000
  H   H24       1.0  0.2668389576839867  0.31400546023716425  0.9481036576182675  1.0000
  H   H25       1.0  0.2183493053804033  0.04807499219300282  0.2791383624172836  1.0000
  H   H26       1.0  0.08642258800635094  0.12365705700416552  0.26919443738809834  1.0000
  Zn  Zn1       1.0  0.8236407946242529  0.3810065502990232  0.5879507128805233  1.0000
  Zn  Zn2       1.0  0.9890127547215657  0.3730107520751855  0.5920654911532279  1.0000
  C   C39       1.0  0.9063412413850159  0.37191047784300757  0.8272215579406421  1.0000
  C   C40       1.0  0.9063141141305379  0.3821083758474093  0.352794818543404  1.0000
  C   C41       1.0  0.9063704758436193  0.6141951306099755  0.5848387420032992  1.0000
  C   C42       1.0  0.9062848229547852  0.13982216555670246  0.5951777022816662  1.0000
  O   O2        1.0  0.969073735389515  0.3808203879354448  0.40274594158031696  1.0000
  O   O3        1.0  0.9690951111890826  0.3671288600901297  0.7803930825042196  1.0000
  O   O4        1.0  0.9691178724558831  0.5627768226398444  0.5846672227192837  1.0000
  O   O5        1.0  0.9690509176886567  0.185172437373339  0.5984717025792894  1.0000
  O   O6        1.0  0.8436025752238279  0.5688448677308551  0.5815445000434587  1.0000
  O   O7        1.0  0.8435798142408428  0.37319846543486435  0.7772702906164719  1.0000
  O   O8        1.0  0.8435584383941256  0.3868899475276444  0.39962158817281734  1.0000
  O   O9        1.0  0.8435356206939911  0.191241987707915  0.5953474465467505  1.0000
