data_image0
_chemical_formula_structural       NC9NC3OCH8C12NH11C12BrH9Zn2C4O8
_chemical_formula_sum              "N3 C41 O9 H28 Br1 Zn2"
_cell_length_a       17.728193572023454
_cell_length_b       10.299770795358612
_cell_length_c       10.299148005577397
_cell_angle_alpha    85.54782545814984
_cell_angle_beta     90.67765201936251
_cell_angle_gamma    88.47103896228896

_space_group_name_H-M_alt    "P 1"
_space_group_IT_number       1

loop_
  _space_group_symop_operation_xyz
  'x, y, z'

loop_
  _atom_site_type_symbol
  _atom_site_label
  _atom_site_symmetry_multiplicity
  _atom_site_fract_x
  _atom_site_fract_y
  _atom_site_fract_z
  _atom_site_occupancy
  N   N1        1.0  0.7112311970833599  0.3870994579938445  0.5850260156582978  1.0000
  C   C1        1.0  0.6506057740291218  0.34967013127513913  0.5980342800248379  1.0000
  C   C2        1.0  0.5751354774090665  0.3031404805382718  0.6142242282731822  1.0000
  C   C3        1.0  0.5632018168568127  0.1751027946326409  0.6236531585720597  1.0000
  C   C4        1.0  0.48647465517476707  0.1256498610645178  0.6386077210236314  1.0000
  C   C5        1.0  0.4283429306523176  0.20831615325496267  0.6560732623716528  1.0000
  C   C6        1.0  0.3502767887561842  0.16326574542979544  0.6778114527358525  1.0000
  C   C7        1.0  0.28896686879250416  0.24873829359297805  0.6423426079595007  1.0000
  C   C8        1.0  0.21467656388864093  0.20943324250085227  0.6624941539836438  1.0000
  C   C9        1.0  0.1523890971361385  0.29744286003195275  0.6249506946144547  1.0000
  N   N2        1.0  0.1023233801944799  0.3681940653445468  0.5947693022032821  1.0000
  C   C10       1.0  0.2010644020153065  0.08453564293463778  0.7191686918268394  1.0000
  C   C11       1.0  0.2614753573203924  0.9993804416947393  0.756046150030661  1.0000
  C   C12       1.0  0.3356618682036406  0.03819585416858873  0.7360242254170715  1.0000
  O   O1        1.0  0.4417339627770216  0.3421002718987287  0.6547694042123606  1.0000
  C   C13       1.0  0.509486157038035  0.399486822693486  0.6061539022700451  1.0000
  H   H1        1.0  0.6101116771767001  0.1056432455813896  0.6215561973288388  1.0000
  H   H2        1.0  0.4787962107582954  0.022002230821664526  0.6366314997323763  1.0000
  H   H3        1.0  0.2988945910934211  0.3455688105861694  0.5979078114803609  1.0000
  H   H4        1.0  0.1438374985655647  0.05324543988413133  0.7353115830938637  1.0000
  H   H5        1.0  0.2508109812462906  0.9032087166720294  0.8009420646474252  1.0000
  H   H6        1.0  0.38116699758620853  0.9709615241838468  0.7684501920183431  1.0000
  H   H7        1.0  0.5000536127035831  0.43543071310875114  0.5026203280144259  1.0000
  H   H8        1.0  0.5223746291842336  0.48386355708711704  0.6627337789478998  1.0000
  C   C14       1.0  0.9067125203112547  0.9962813546188005  0.5899356420493871  1.0000
  C   C15       1.0  0.8848450716963874  0.0065331801482964025  0.4579739149014339  1.0000
  C   C16       1.0  0.8738338899232093  0.8945883620470092  0.3910744951091252  1.0000
  C   C17       1.0  0.8849832149613434  0.7712448990519829  0.45790880021029223  1.0000
  C   C18       1.0  0.9068492977898815  0.7590018476496007  0.589871043907124  1.0000
  C   C19       1.0  0.9175918670862984  0.8720808509113199  0.6551453778951821  1.0000
  C   C20       1.0  0.8506997288716662  0.9064875876332756  0.25146665521732814  1.0000
  C   C21       1.0  0.795762840591004  0.0003278309736376439  0.2049086019870041  1.0000
  C   C22       1.0  0.7740213259841187  0.011396592779228554  0.07350944828192274  1.0000
  C   C23       1.0  0.806805158784405  0.9290647575772376  0.9865778527265752  1.0000
  C   C24       1.0  0.8615612010205944  0.8354314700070681  0.032240797405974186  1.0000
  C   C25       1.0  0.8833631757578525  0.824103764233625  0.16361148284871563  1.0000
  N   N3        1.0  0.7845342517380812  0.9405196076795902  0.8521808562710413  1.0000
  H   H9        1.0  0.9150129319951839  0.31982874187293  0.6402355114929796  1.0000
  H   H10       1.0  0.8773254478902884  0.1018096012920724  0.40643178116022094  1.0000
  H   H11       1.0  0.8755690598961329  0.6846785153939315  0.4072596179583159  1.0000
  H   H12       1.0  0.9344610395123634  0.8634040234386842  0.7569479913936588  1.0000
  H   H13       1.0  0.915214102211441  0.42688265271619735  0.6401408945761495  1.0000
  H   H14       1.0  0.768900628198722  0.06402762151199237  0.270445907160791  1.0000
  H   H15       1.0  0.7314843771191604  0.08393887369297359  0.0395365163429966  1.0000
  H   H16       1.0  0.8874903299265066  0.7714313321319655  0.9659909388979151  1.0000
  H   H17       1.0  0.9264790294293682  0.7520439842321925  0.19615922283177367  1.0000
  H   H18       1.0  0.8086518955877526  0.8795682606472872  0.7866387905623338  1.0000
  H   H19       1.0  0.7437638962219159  0.010036624073064493  0.8172287167212167  1.0000
  C   C26       1.0  0.9068837806113517  0.3776886643920856  0.2085177307150563  1.0000
  C   C27       1.0  0.8359123220175745  0.4418992287741792  0.2013071656530181  1.0000
  C   C28       1.0  0.799822009208203  0.4744072291014918  0.08051034649541822  1.0000
  C   C29       1.0  0.8356604481343461  0.44183859935270786  0.9660238622852142  1.0000
  C   C30       1.0  0.9066780299431206  0.3775945385726742  0.9712889675360787  1.0000
  C   C31       1.0  0.9418522506141198  0.34591319612098825  0.09294872107562346  1.0000
  C   C32       1.0  0.7247433111646732  0.542336162731083  0.07392736839107195  1.0000
  C   C33       1.0  0.7089100632868189  0.644419287439709  0.1536018968512176  1.0000
  C   C34       1.0  0.6382118811484617  0.7082457846107109  0.14721033482135693  1.0000
  C   C35       1.0  0.5825434099763648  0.6709930947911198  0.06146237645826025  1.0000
  C   C36       1.0  0.5976188578133445  0.5697334675264214  0.9819164334302539  1.0000
  C   C37       1.0  0.6682528423264626  0.5056881082694389  0.9879138774208838  1.0000
  Br  Br1       1.0  0.4860141385901892  0.7583299602033149  0.05299993344416687  1.0000
  H   H20       1.0  0.9341978811517585  0.3530424540522521  0.5387630924503477  1.0000
  H   H21       1.0  0.8080697790365633  0.46519137059121096  0.28995107841023104  1.0000
  H   H22       1.0  0.8085634828234414  0.46824342034152777  0.8725300833567946  1.0000
  H   H23       1.0  0.99659540105692  0.2963898708228534  0.09779439492280173  1.0000
  H   H24       1.0  0.040930835172951596  0.2570622890030114  0.7738828678903675  1.0000
  H   H25       1.0  0.7514963360590771  0.6759777727362051  0.21956743419481506  1.0000
  H   H26       1.0  0.6268300211409836  0.7868623024319581  0.20872432425316179  1.0000
  H   H27       1.0  0.5545865587247168  0.5403485289482179  0.9156325914186159  1.0000
  H   H28       1.0  0.6783718345162368  0.4264433462926056  0.9265695815816994  1.0000
  Zn  Zn1       1.0  0.8240919618908327  0.38164029880785333  0.5878452180262095  1.0000
  Zn  Zn2       1.0  0.9894626362117341  0.3736426195998106  0.5919607388672878  1.0000
  C   C38       1.0  0.9067143193484044  0.3724387755341121  0.8271092954366619  1.0000
  C   C39       1.0  0.9068420848562615  0.3828456941271783  0.3526968337315579  1.0000
  C   C40       1.0  0.9068209600017948  0.614832258333259  0.5847077978746205  1.0000
  C   C41       1.0  0.906735387474927  0.1404506537610164  0.5950983992629748  1.0000
  O   O2        1.0  0.9695853994321676  0.3815356971503998  0.4026464769867344  1.0000
  O   O3        1.0  0.969483520090269  0.36767773937878  0.780282863493682  1.0000
  O   O4        1.0  0.9695687874037465  0.5634135829707094  0.5845419180128719  1.0000
  O   O5        1.0  0.9695000757168121  0.18579986558968598  0.598387323683472  1.0000
  O   O6        1.0  0.8440544659528614  0.5694830555486079  0.5814186317987691  1.0000
  O   O7        1.0  0.8439691989344346  0.37374877225432246  0.7771595078989462  1.0000
  O   O8        1.0  0.8440710787395733  0.38760668496069073  0.3995215599279305  1.0000
  O   O9        1.0  0.8439857549932026  0.1918708440993908  0.5952625039974839  1.0000
