data_image0
_chemical_formula_structural       NC9NC3OCH8C16H10C12SCH12Zn2C4O8
_chemical_formula_sum              "N2 C46 O9 H30 S1 Zn2"
_cell_length_a       17.728193572023454
_cell_length_b       10.29914801576943
_cell_length_c       10.299780138516091
_cell_angle_alpha    85.5534209466543
_cell_angle_beta     90.6970768647591
_cell_angle_gamma    88.46752555428026

_space_group_name_H-M_alt    "P 1"
_space_group_IT_number       1

loop_
  _space_group_symop_operation_xyz
  'x, y, z'

loop_
  _atom_site_type_symbol
  _atom_site_label
  _atom_site_symmetry_multiplicity
  _atom_site_fract_x
  _atom_site_fract_y
  _atom_site_fract_z
  _atom_site_occupancy
  N   N1        1.0  0.7109087915368892  0.3866282693059597  0.5846939714059387  1.0000
  C   C1        1.0  0.6502872795687618  0.3492011062078326  0.5977134619035918  1.0000
  C   C2        1.0  0.5748218485536493  0.30267415307805345  0.6139173640268272  1.0000
  C   C3        1.0  0.5628948957566818  0.17462916971930142  0.623387853740603  1.0000
  C   C4        1.0  0.4861724768698794  0.12517815912972807  0.6383574495275246  1.0000
  C   C5        1.0  0.4280409020492708  0.20785903474254153  0.6557940379969012  1.0000
  C   C6        1.0  0.34998062441873834  0.1628137799311935  0.6775451927896536  1.0000
  C   C7        1.0  0.2886606768195348  0.2482789716329692  0.6420512312175164  1.0000
  C   C8        1.0  0.2143757138486286  0.20897891333073737  0.6622139815514068  1.0000
  C   C9        1.0  0.15207772743656583  0.2969805277724462  0.6246447518383504  1.0000
  N   N2        1.0  0.10200355369100131  0.36772529933943265  0.594442642575556  1.0000
  C   C10       1.0  0.2007791266782931  0.08409409429827552  0.7189247853438254  1.0000
  C   C11       1.0  0.2612003653976117  0.9989468677954769  0.7558271284184022  1.0000
  C   C12       1.0  0.335381577797994  0.037757298788061  0.7357941500022616  1.0000
  O   O1        1.0  0.4414265514907429  0.3416543611914167  0.6544459856236511  1.0000
  C   C13       1.0  0.5091672951906524  0.3990255777134013  0.6058158530139564  1.0000
  H   H1        1.0  0.6098070230412889  0.10516263904033618  0.6213140874774232  1.0000
  H   H2        1.0  0.47849763452939  0.02152059409514062  0.6364157360259151  1.0000
  H   H3        1.0  0.2985762299843601  0.3450993721693332  0.5975883631726289  1.0000
  H   H4        1.0  0.1435564949898956  0.052807908071948795  0.7350765871554177  1.0000
  H   H5        1.0  0.25054822089292555  0.9027855103800576  0.8007508548842781  1.0000
  H   H6        1.0  0.3808954559884798  0.970530652312724  0.7682394665317196  1.0000
  H   H7        1.0  0.4997136762805476  0.43492923203437495  0.5022796944180821  1.0000
  H   H8        1.0  0.5220632920560017  0.4834334398393285  0.6623626889102194  1.0000
  C   C14       1.0  0.9064060483664688  0.9957778863710675  0.5897326014612114  1.0000
  C   C15       1.0  0.8891861785791799  0.006171302568244608  0.45583550858976984  1.0000
  C   C16       1.0  0.880510807628518  0.8943084972012253  0.3877836266458061  1.0000
  C   C17       1.0  0.8892869482909638  0.7709145026863421  0.455433448687782  1.0000
  C   C18       1.0  0.9065135379634635  0.7585653434756522  0.5894154580714839  1.0000
  C   C19       1.0  0.9149683693425188  0.8715180427305854  0.6557400959025668  1.0000
  C   C20       1.0  0.862294448389459  0.9063490747430899  0.24613665506173255  1.0000
  C   C21       1.0  0.898004994419783  0.8236139004506805  0.16181301438428508  1.0000
  C   C22       1.0  0.8808340209351355  0.8350725280922106  0.028499685804000086  1.0000
  C   C23       1.0  0.8277762221478323  0.9291746498979083  0.9777014313430743  1.0000
  C   C24       1.0  0.7919281758809107  0.01189642294999671  0.06073776259538066  1.0000
  C   C25       1.0  0.8090453428063715  0.0006816675817022944  0.1940706955771594  1.0000
  C   C26       1.0  0.8101265386379243  0.940846263865978  0.8404436050513837  1.0000
  C   C27       1.0  0.7953451189256286  0.9506211280720276  0.7254921595701185  1.0000
  C   C28       1.0  0.7780362510127675  0.962067363309896  0.5908851896860194  1.0000
  C   C29       1.0  0.7632573121109533  0.9718407356575807  0.4759523129578551  1.0000
  H   H9        1.0  0.9129907370365625  0.31925661295008  0.6412482848491456  1.0000
  H   H10       1.0  0.883497410607646  0.10148692562690509  0.40378600584095725  1.0000
  H   H11       1.0  0.8816503017560449  0.6843758297744481  0.403829950754953  1.0000
  H   H12       1.0  0.9282482895990187  0.8627855502434851  0.7590191611737749  1.0000
  H   H13       1.0  0.9385604778660058  0.5279730280988653  0.8424660573608558  1.0000
  H   H14       1.0  0.9399230562303226  0.7511933050986741  0.19870594020177856  1.0000
  H   H15       1.0  0.90907242653337  0.7707666253028521  0.9650316635566885  1.0000
  H   H16       1.0  0.7506104556828944  0.08485196673398221  0.022489971421951527  1.0000
  H   H17       1.0  0.7799272914753406  0.06464005275948859  0.2567140406924988  1.0000
  H   H18       1.0  0.7502802139703819  0.98042257933168  0.37503155741289795  1.0000
  C   C30       1.0  0.9064901136175203  0.3770588425789967  0.2082226996682226  1.0000
  C   C31       1.0  0.8347293983545524  0.3225108236765566  0.20995269171367714  1.0000
  C   C32       1.0  0.7983378346137885  0.29498662658383545  0.09368158410080385  1.0000
  C   C33       1.0  0.834667648283968  0.32273926634258365  0.9746471614620855  1.0000
  C   C34       1.0  0.9064294883379814  0.37728440715798683  0.9709253603408312  1.0000
  C   C35       1.0  0.9419388415074541  0.40413953925637824  0.08822624718962935  1.0000
  C   C36       1.0  0.7224199830456707  0.23729447346081067  0.09657454781180186  1.0000
  C   C37       1.0  0.666536500190138  0.28166002476924246  0.004207615810976062  1.0000
  C   C38       1.0  0.5950991560601938  0.22732926959282196  0.007167406382565078  1.0000
  C   C39       1.0  0.5785034416868502  0.12831313394459132  0.10235831536509776  1.0000
  C   C40       1.0  0.6337151913562094  0.08318104924756309  0.1943031878953263  1.0000
  C   C41       1.0  0.7051991979808699  0.13733610452016554  0.19170704110960557  1.0000
  S   S1        1.0  0.4868704439263768  0.05846459761298228  0.10570674306252359  1.0000
  C   C42       1.0  0.44818712797593496  0.17455922413965141  0.213423561274096  1.0000
  H   H19       1.0  0.9338452291464099  0.39779607735149525  0.5350207970120058  1.0000
  H   H20       1.0  0.8065239445400234  0.30295000041229336  0.3018077451632748  1.0000
  H   H21       1.0  0.8072988518640274  0.3000586591164758  0.8849028053412784  1.0000
  H   H22       1.0  0.9972993540228153  0.44622022176920106  0.08612326460004072  1.0000
  H   H23       1.0  0.9337573261940549  0.39812781760174  0.6420488998227047  1.0000
  H   H24       1.0  0.6777690541378093  0.35949156992202935  0.9307764870534907  1.0000
  H   H25       1.0  0.5525840346440026  0.26272027202402026  0.9357623656477516  1.0000
  H   H26       1.0  0.621329335924417  0.006101280847046864  0.2678301414454223  1.0000
  H   H27       1.0  0.7473080116673114  0.09991357821027091  0.2630019989178114  1.0000
  H   H28       1.0  0.48009700418910384  0.16698629400386977  0.30723560589417764  1.0000
  H   H29       1.0  0.38829685966388117  0.15232304636659544  0.23271358372086914  1.0000
  H   H30       1.0  0.4511183390026052  0.27514809082201586  0.16686309591613457  1.0000
  Zn  Zn1       1.0  0.8237703021604645  0.3811698120925233  0.5875147281347035  1.0000
  Zn  Zn2       1.0  0.9891420663230195  0.37317315514953897  0.5916325274334366  1.0000
  C   C43       1.0  0.9064385276384275  0.37206776336202974  0.8267603128440846  1.0000
  C   C44       1.0  0.9064756469203902  0.382276755342158  0.3523871144694657  1.0000
  C   C45       1.0  0.9064897535062401  0.6143809449079984  0.5843003532567204  1.0000
  C   C46       1.0  0.9064243643973428  0.13996201612081416  0.5948471425359803  1.0000
  O   O2        1.0  0.9692285136236569  0.3809875787124475  0.4023326947647583  1.0000
  O   O3        1.0  0.9691990033840253  0.367286682492419  0.7799396735157618  1.0000
  O   O4        1.0  0.9692395228086567  0.5629576823676268  0.5841515190769722  1.0000
  O   O5        1.0  0.9691879377778946  0.1853165908281098  0.598120750424384  1.0000
  O   O6        1.0  0.8437243742723232  0.5690263791442312  0.5810265037317215  1.0000
  O   O7        1.0  0.84368385506966  0.3733569396746761  0.7768145882793276  1.0000
  O   O8        1.0  0.8437133654772262  0.3870577901710357  0.39920604821975747  1.0000
  O   O9        1.0  0.8436727896193286  0.1913867930261064  0.5949942012465135  1.0000
