data_image0
_chemical_formula_structural       NC9NC3OCH8C12BrH9C12NH11Zn2C4O8
_chemical_formula_sum              "N3 C41 O9 H28 Br1 Zn2"
_cell_length_a       17.728193572023454
_cell_length_b       10.299144633409057
_cell_length_c       10.299774167527174
_cell_angle_alpha    85.56689002636797
_cell_angle_beta     90.69829352168313
_cell_angle_gamma    88.42800798751284

_space_group_name_H-M_alt    "P 1"
_space_group_IT_number       1

loop_
  _space_group_symop_operation_xyz
  'x, y, z'

loop_
  _atom_site_type_symbol
  _atom_site_label
  _atom_site_symmetry_multiplicity
  _atom_site_fract_x
  _atom_site_fract_y
  _atom_site_fract_z
  _atom_site_occupancy
  N   N1        1.0  0.7103382098455859  0.3866200756264693  0.5849952017829001  1.0000
  C   C1        1.0  0.6497317912951522  0.34919293611898383  0.598006555853144  1.0000
  C   C2        1.0  0.5742851236415577  0.30266601246411384  0.6142003433167866  1.0000
  C   C3        1.0  0.5624093799395502  0.17462083465168443  0.6236429888278472  1.0000
  C   C4        1.0  0.4857068761246169  0.1251698377156174  0.6386018337677142  1.0000
  C   C5        1.0  0.42754252223347783  0.2078510236719433  0.6560564071208688  1.0000
  C   C6        1.0  0.3495004844499365  0.1628058449677081  0.6777977707551621  1.0000
  C   C7        1.0  0.2881460005562584  0.24827093757838825  0.6423223874517141  1.0000
  C   C8        1.0  0.21387696554863242  0.20897095497980578  0.6624765956903425  1.0000
  C   C9        1.0  0.15154340540357183  0.2969724593721872  0.6249264953747831  1.0000
  N   N2        1.0  0.1014406338223207  0.3677171424694812  0.5947397642941157  1.0000
  C   C10       1.0  0.2003309032163175  0.08408631876123995  0.7191602533572894  1.0000
  C   C11       1.0  0.26078656854753435  0.9989392030666978  0.7560440876348857  1.0000
  C   C12       1.0  0.3349520499437416  0.0377495583460985  0.7360195448628482  1.0000
  O   O1        1.0  0.44087476719792934  0.34164662037045335  0.6547374513581306  1.0000
  C   C13       1.0  0.5085920244994441  0.39901757577143404  0.6061197843155861  1.0000
  H   H1        1.0  0.6093492009649588  0.10515414189761585  0.6215541149694808  1.0000
  H   H2        1.0  0.4780733723012471  0.021512039877629174  0.6366375770619945  1.0000
  H   H3        1.0  0.2980223768882978  0.3450911924897695  0.5978805650756229  1.0000
  H   H4        1.0  0.1431209527677253  0.0528001935902529  0.7353052549581645  1.0000
  H   H5        1.0  0.2501733435256945  0.9027779962753119  0.8009469118618995  1.0000
  H   H6        1.0  0.3804931495274354  0.9705230253243198  0.7684502488227283  1.0000
  H   H7        1.0  0.499122815016512  0.4349204931349253  0.5025914100815676  1.0000
  H   H8        1.0  0.5214550306584239  0.4834260587140293  0.662684989631771  1.0000
  C   C14       1.0  0.905991488254236  0.9957689118584416  0.5899488334461016  1.0000
  C   C15       1.0  0.8738169950641128  0.0062282036031195975  0.4641920813513496  1.0000
  C   C16       1.0  0.857402270770729  0.8943996692293111  0.4003522638699635  1.0000
  C   C17       1.0  0.8735962015016525  0.7709732347658828  0.4639653468496352  1.0000
  C   C18       1.0  0.9057946191915658  0.7585580094242967  0.5897975512499365  1.0000
  C   C19       1.0  0.9217931327385018  0.871477230278988  0.6520157294369768  1.0000
  C   C20       1.0  0.823366712944039  0.9065094575086614  0.2673159373384275  1.0000
  C   C21       1.0  0.8486305847590494  0.0005688882618726243  0.17248226303505287  1.0000
  C   C22       1.0  0.8165293740211392  0.011762926927212591  0.04731387665520859  1.0000
  C   C23       1.0  0.7589024003305882  0.9294488218152231  0.015344625933110256  1.0000
  C   C24       1.0  0.733345975833032  0.8357229185982717  0.10873051623590424  1.0000
  C   C25       1.0  0.765315680879987  0.8241179352558459  0.23399590036476403  1.0000
  Br  Br1       1.0  0.7151426146989596  0.9450197292698188  0.8442986856281731  1.0000
  H   H9        1.0  0.9183985502944249  0.31922169673968814  0.6382975128641248  1.0000
  H   H10       1.0  0.8604930920841197  0.1015783660766909  0.41630124276429004  1.0000
  H   H11       1.0  0.8620102515646452  0.6844506614008279  0.4145137937663228  1.0000
  H   H12       1.0  0.9466124884968012  0.8626939738856283  0.749013361349322  1.0000
  H   H13       1.0  0.9670016171782602  0.5278374309231452  0.8269760224019553  1.0000
  H   H14       1.0  0.8938463920516244  0.06427193453310043  0.19461001376646614  1.0000
  H   H15       1.0  0.8366251044728216  0.08424036797544421  0.9751597169963153  1.0000
  H   H16       1.0  0.6885823018350492  0.7720234637933614  0.08446552286666531  1.0000
  H   H17       1.0  0.7439928143931893  0.7519138922008322  0.30525966492272905  1.0000
  C   C26       1.0  0.9059187542233903  0.37704767512300386  0.20852176267688516  1.0000
  C   C27       1.0  0.8320220461048518  0.3313140408142412  0.2095108058435673  1.0000
  C   C28       1.0  0.7945515464446063  0.30825755040407254  0.09286346124049838  1.0000
  C   C29       1.0  0.8319701407717734  0.33154786638581424  0.9742047571611487  1.0000
  C   C30       1.0  0.9058673295049929  0.37727925081586666  0.9712245820347443  1.0000
  C   C31       1.0  0.9424277106453033  0.39977357252862133  0.08889202005196362  1.0000
  C   C32       1.0  0.7163731119278559  0.2598745826932838  0.09496316012481665  1.0000
  C   C33       1.0  0.6951895584882304  0.1624378385976133  0.18975299338541096  1.0000
  C   C34       1.0  0.6216044965322401  0.11695548735218075  0.19159542719310085  1.0000
  C   C35       1.0  0.5680390044295045  0.16807343166498367  0.09894689550747104  1.0000
  C   C36       1.0  0.5887246672535474  0.2651440526548112  0.004304096554004211  1.0000
  C   C37       1.0  0.662287042546202  0.3107287691739389  0.0021947979572856102  1.0000
  N   N3        1.0  0.4927785790310459  0.12149592285424249  0.10096801245588227  1.0000
  H   H18       1.0  0.9340896315716618  0.39441999290269525  0.5356028230232168  1.0000
  H   H19       1.0  0.8030534182997646  0.31520982684072596  0.3010780770218737  1.0000
  H   H20       1.0  0.8037130096074903  0.3122366405088024  0.8841742657273248  1.0000
  H   H21       1.0  0.999435782765126  0.4350540710078299  0.08736103592213573  1.0000
  H   H22       1.0  0.9340141666271919  0.3947606132875989  0.6426311005196435  1.0000
  H   H23       1.0  0.7357945057335297  0.12020436745343477  0.26142223877138937  1.0000
  H   H24       1.0  0.6064007232263497  0.041638478759812525  0.2650495584569872  1.0000
  H   H25       1.0  0.5478051096420089  0.3057273055930798  0.9323572789369785  1.0000
  H   H26       1.0  0.6766083739349479  0.38695498230427283  0.9290505316404887  1.0000
  H   H27       1.0  0.4524549908608784  0.15900371082364195  0.03229196013569968  1.0000
  H   H28       1.0  0.476826827753571  0.049160537848373265  0.17115580717766665  1.0000
  Zn  Zn1       1.0  0.8232019329812297  0.3811616290870401  0.5878147720890343  1.0000
  Zn  Zn2       1.0  0.9885769383024402  0.37316498766682016  0.5919308332715421  1.0000
  C   C38       1.0  0.9058767112684558  0.3720614383077123  0.8270584321712682  1.0000
  C   C39       1.0  0.9059039654735682  0.3822667299128768  0.3526873452721595  1.0000
  C   C40       1.0  0.9058282874207785  0.6143732261756139  0.5846511136834986  1.0000
  C   C41       1.0  0.9059523332884026  0.13995338436686855  0.5950947319003421  1.0000
  O   O2        1.0  0.9686579563568203  0.38097794243669725  0.4026326566515046  1.0000
  O   O3        1.0  0.9686385231849445  0.3672799800610034  0.780236742355706  1.0000
  O   O4        1.0  0.9685985742038201  0.5629498545340617  0.5844910962798646  1.0000
  O   O5        1.0  0.9686978489108231  0.18530807995375875  0.5983782039507666  1.0000
  O   O6        1.0  0.8430809659384738  0.569018539530374  0.5813673999983688  1.0000
  O   O7        1.0  0.8431209145180684  0.37335022546569574  0.7771129765223572  1.0000
  O   O8        1.0  0.8431403478570624  0.38704814210537486  0.39950732949928747  1.0000
  O   O9        1.0  0.8431802404038139  0.1913782703625897  0.5952529741636883  1.0000
