data_image0
_chemical_formula_structural       NC9NC3OCH8C16H10C12ClH9Zn2C4O8
_chemical_formula_sum              "N2 C45 O9 H27 Cl1 Zn2"
_cell_length_a       17.728193572023454
_cell_length_b       10.29914801576943
_cell_length_c       10.299771906710086
_cell_angle_alpha    85.52082016499398
_cell_angle_beta     90.7132806509017
_cell_angle_gamma    88.46752555428026

_space_group_name_H-M_alt    "P 1"
_space_group_IT_number       1

loop_
  _space_group_symop_operation_xyz
  'x, y, z'

loop_
  _atom_site_type_symbol
  _atom_site_label
  _atom_site_symmetry_multiplicity
  _atom_site_fract_x
  _atom_site_fract_y
  _atom_site_fract_z
  _atom_site_occupancy
  N   N1        1.0  0.7106630310337594  0.38744787398000446  0.5846238619327508  1.0000
  C   C1        1.0  0.6500437798321874  0.35001317128616427  0.597643997371923  1.0000
  C   C2        1.0  0.5745811625400846  0.30347683446575613  0.6138487021816577  1.0000
  C   C3        1.0  0.5626558542442144  0.17542636674003487  0.6233196610314586  1.0000
  C   C4        1.0  0.4859360347495702  0.12596668724746274  0.6382899983615185  1.0000
  C   C5        1.0  0.4278074877015199  0.20863746532015393  0.6557274505805064  1.0000
  C   C6        1.0  0.3497509870454633  0.1635796144004209  0.6774796828518908  1.0000
  C   C7        1.0  0.28842487610513234  0.2490653606792399  0.6419839630289605  1.0000
  C   C8        1.0  0.2141434142905601  0.20975362611471482  0.6621477121572994  1.0000
  C   C9        1.0  0.1518389041778913  0.2977769969226449  0.6245766213916861  1.0000
  N   N2        1.0  0.1017594859937262  0.36853925855143954  0.5943730160185616  1.0000
  C   C10       1.0  0.2005566746552392  0.08483596581759523  0.7188613252111056  1.0000
  C   C11       1.0  0.2609843212737806  0.9996673691430764  0.755765496302931  1.0000
  C   C12       1.0  0.3351620550520451  0.03848940124694922  0.7357315255208039  1.0000
  O   O1        1.0  0.4411929030607351  0.34243357242706574  0.6543793314293016  1.0000
  C   C13       1.0  0.508925202391995  0.3998329506915861  0.6057467898473357  1.0000
  H   H1        1.0  0.609567621430136  0.10596103698050863  0.6212457920409129  1.0000
  H   H2        1.0  0.4782608552406681  0.02231024666047121  0.6363481886739903  1.0000
  H   H3        1.0  0.2983327085250441  0.3459115096924239  0.5975188924439923  1.0000
  H   H4        1.0  0.1433368476429043  0.0535404260719643  0.7350139271283243  1.0000
  H   H5        1.0  0.25033997753966675  0.903479996367415  0.8006914481382552  1.0000
  H   H6        1.0  0.3806815672023623  0.9712439656669654  0.768178449281492  1.0000
  H   H7        1.0  0.4994536049684701  0.43579656287171065  0.50220550242039  1.0000
  H   H8        1.0  0.5218310183201897  0.4842080665067743  0.6622964268825713  1.0000
  C   C14       1.0  0.9061611627951431  0.9965945731710549  0.5896627415847122  1.0000
  C   C15       1.0  0.8889180424766996  0.007065529264863146  0.45575901590421575  1.0000
  C   C16       1.0  0.8802308546720092  0.895242132788495  0.38770376290021513  1.0000
  C   C17       1.0  0.8890187423728803  0.7718089622161206  0.45535693608554006  1.0000
  C   C18       1.0  0.9062685973218442  0.7593822139335902  0.5893455824847742  1.0000
  C   C19       1.0  0.9147349456280051  0.8722965045461007  0.6556735058140633  1.0000
  C   C20       1.0  0.8619898991758157  0.9073647381869708  0.24604977460430977  1.0000
  C   C21       1.0  0.8976858028461552  0.8246783957716503  0.16172195681893986  1.0000
  C   C22       1.0  0.8804916801979744  0.8362142252515176  0.028402024347307764  1.0000
  C   C23       1.0  0.8274250605589809  0.9303457643605748  0.9776012535126877  1.0000
  C   C24       1.0  0.7915914331174827  0.013019451017328265  0.060641698103962804  1.0000
  C   C25       1.0  0.808731752610679  0.001727482457774654  0.19398123594822425  1.0000
  C   C26       1.0  0.8097515429441047  0.9420968644282617  0.8403366279325764  1.0000
  C   C27       1.0  0.7949501625134157  0.9519382970937831  0.7253794881455411  1.0000
  C   C28       1.0  0.7776179208029622  0.9634624833185383  0.5907658502874815  1.0000
  C   C29       1.0  0.7628190244071218  0.9733024133725175  0.4758272801733794  1.0000
  H   H9        1.0  0.912754796894715  0.32004346698313335  0.6411809768853427  1.0000
  H   H10       1.0  0.8832202363807424  0.1024112942256088  0.40370693479910136  1.0000
  H   H11       1.0  0.8813731351599461  0.6853001729246228  0.40375088188997954  1.0000
  H   H12       1.0  0.9280327997550113  0.8635042030827672  0.758957687180809  1.0000
  H   H13       1.0  0.9383594781398789  0.5286433567843829  0.8424087170448564  1.0000
  H   H14       1.0  0.9396102709206601  0.752236435701464  0.19861671018718274  1.0000
  H   H15       1.0  0.908719064905486  0.7719450768365738  0.9649308581088634  1.0000
  H   H16       1.0  0.7502670713902051  0.08599714412293413  0.022392012264337513  1.0000
  H   H17       1.0  0.779624578969492  0.06564959083222921  0.25662768420298043  1.0000
  H   H18       1.0  0.7498244019042162  0.9819427003241  0.3749015253555714  1.0000
  C   C30       1.0  0.9061789808434562  0.37809646201997227  0.20813394108169914  1.0000
  C   C31       1.0  0.9746374321965005  0.4436756009218501  0.20348387791809053  1.0000
  C   C32       1.0  0.009362671019175872  0.47679513618054825  0.0839982785267841  1.0000
  C   C33       1.0  0.9747101982190993  0.44345690192847953  0.9682160057700391  1.0000
  C   C34       1.0  0.9062507769507018  0.3778803700327331  0.9708743877216404  1.0000
  C   C35       1.0  0.8723688851805148  0.34556653155124084  0.0913107825879047  1.0000
  C   C36       1.0  0.0817865051790645  0.546170976653114  0.08013265997752095  1.0000
  C   C37       1.0  0.09372796975741693  0.648607735962716  0.16018923874266866  1.0000
  C   C38       1.0  0.16192896880281094  0.7138036689221006  0.15636434769633567  1.0000
  C   C39       1.0  0.21896242611572814  0.677572508520399  0.07281203366720668  1.0000
  C   C40       1.0  0.20774151770020421  0.5759604536882088  0.9929018514904726  1.0000
  C   C41       1.0  0.1396081316011879  0.5105609125177142  0.9963528807534576  1.0000
  Cl  Cl1       1.0  0.30448565931727445  0.7594953940748208  0.06824824431567666  1.0000
  H   H19       1.0  0.8800729812507521  0.35316579890702005  0.537354266155764  1.0000
  H   H20       1.0  0.0016408257986464392  0.4675717575584326  0.29312724914866384  1.0000
  H   H21       1.0  0.0007199470239858119  0.4703429335033502  0.8757430028044699  1.0000
  H   H22       1.0  0.819555882726957  0.29497638676941174  0.09412987787876381  1.0000
  H   H23       1.0  0.8801789636739139  0.3528460758544205  0.6444378552105245  1.0000
  H   H24       1.0  0.04998368376142093  0.6793782982417944  0.22446071302120463  1.0000
  H   H25       1.0  0.17028443831274753  0.7926805635397445  0.21817300350065794  1.0000
  H   H26       1.0  0.25183049073656005  0.5473205606490428  0.928294493946439  1.0000
  H   H27       1.0  0.1325051433749065  0.4310831383517568  0.9347952081132265  1.0000
  Zn  Zn1       1.0  0.8235250314670145  0.38198778326444716  0.587444758392262  1.0000
  Zn  Zn2       1.0  0.9888975106639204  0.37398874170111673  0.5915627616728436  1.0000
  C   C42       1.0  0.9062348006917585  0.37274718725477096  0.8267021945186288  1.0000
  C   C43       1.0  0.9061895475443325  0.38323088907346015  0.3523054973003954  1.0000
  C   C44       1.0  0.9062439246533734  0.6152007775265789  0.5842302242850206  1.0000
  C   C45       1.0  0.9061803669393741  0.14077574108662172  0.5947775360165453  1.0000
  O   O2        1.0  0.968951087036872  0.38191278892457414  0.4022535517307879  1.0000
  O   O3        1.0  0.9689871462777684  0.3679932202489187  0.7798792358542108  1.0000
  O   O4        1.0  0.9689936681115117  0.5637776011761799  0.5840813827325311  1.0000
  O   O5        1.0  0.9689445087648455  0.1861284200453852  0.598051306068411  1.0000
  O   O6        1.0  0.8434779769325779  0.5698481076512749  0.5809562125845906  1.0000
  O   O7        1.0  0.843471455308667  0.3740652871701402  0.776753995811625  1.0000
  O   O8        1.0  0.8434353959645917  0.38798481102628135  0.3991267503022935  1.0000
  O   O9        1.0  0.8434288176973371  0.19220043283011545  0.5949246020118695  1.0000
