data_image0
_chemical_formula_structural       NC9NC3OCH8C12SCH12C12IH9Zn2C4O8
_chemical_formula_sum              "N2 C42 O9 H29 S1 I1 Zn2"
_cell_length_a       17.728193572023454
_cell_length_b       10.299776766347529
_cell_length_c       10.29977335064465
_cell_angle_alpha    85.54589617011163
_cell_angle_beta     90.71329701694225
_cell_angle_gamma    88.43488659094774

_space_group_name_H-M_alt    "P 1"
_space_group_IT_number       1

loop_
  _space_group_symop_operation_xyz
  'x, y, z'

loop_
  _atom_site_type_symbol
  _atom_site_label
  _atom_site_symmetry_multiplicity
  _atom_site_fract_x
  _atom_site_fract_y
  _atom_site_fract_z
  _atom_site_occupancy
  N   N1        1.0  0.7102085328954181  0.38733696055793043  0.5852208385400621  1.0000
  C   C1        1.0  0.6496015405786736  0.3499052347836822  0.5982248716240357  1.0000
  C   C2        1.0  0.5741541627211798  0.3033725986838134  0.6144095590514378  1.0000
  C   C3        1.0  0.5622707821383756  0.17533229213313595  0.6238254441061533  1.0000
  C   C4        1.0  0.4855671590458789  0.12587654443576857  0.6387745070089237  1.0000
  C   C5        1.0  0.42741154667756526  0.20854077697240858  0.6562475111111776  1.0000
  C   C6        1.0  0.3493698022348716  0.1634865129648566  0.6779803608417589  1.0000
  C   C7        1.0  0.2880156960536205  0.24896545758160848  0.6425214133632844  1.0000
  C   C8        1.0  0.21374710881365064  0.20965685323560934  0.6626682515389075  1.0000
  C   C9        1.0  0.1514137722686987  0.2976732198410912  0.6251350248853638  1.0000
  N   N2        1.0  0.1013111804259298  0.3684298507696928  0.594961858589742  1.0000
  C   C10       1.0  0.200201278507157  0.08474913500493075  0.7193281294135578  1.0000
  C   C11       1.0  0.2606568167449876  0.9995873157151708  0.7561956643001759  1.0000
  C   C12       1.0  0.3348218363070667  0.03840625651793883  0.7361783938351378  1.0000
  O   O1        1.0  0.4407531543537438  0.34232627228064305  0.6549569353405156  1.0000
  C   C13       1.0  0.5084666524263831  0.39972106816736064  0.6063490891281182  1.0000
  H   H1        1.0  0.6092052933144507  0.10587247016891888  0.6217216997978634  1.0000
  H   H2        1.0  0.4779259183888553  0.02222832331886182  0.636788117040384  1.0000
  H   H3        1.0  0.2978918122166015  0.34580389840250736  0.5980980026735379  1.0000
  H   H4        1.0  0.14299170078504292  0.053456087246330775  0.7354672687316295  1.0000
  H   H5        1.0  0.2500439736433129  0.903407599172537  0.801080239481955  1.0000
  H   H6        1.0  0.3803633709874887  0.9711661741228358  0.7685963906223114  1.0000
  H   H7        1.0  0.4989832636825299  0.4356817638683308  0.5028232881234349  1.0000
  H   H8        1.0  0.5213448510927158  0.48408952757522417  0.6629350038101145  1.0000
  C   C14       1.0  0.9058346384882064  0.9965146602624066  0.5900916187759129  1.0000
  C   C15       1.0  0.9103823371100176  0.9846942963820245  0.7267180737796561  1.0000
  C   C16       1.0  0.9126140351262038  0.8615697138572833  0.7959513349441982  1.0000
  C   C17       1.0  0.9102380371084592  0.7494134915881613  0.7267296700130508  1.0000
  C   C18       1.0  0.9056923539278716  0.7592418107379894  0.5901025158288069  1.0000
  C   C19       1.0  0.9035156756672698  0.8832298168925415  0.5225482802724128  1.0000
  C   C20       1.0  0.9174166705812714  0.8501294107743116  0.9404865015144288  1.0000
  C   C21       1.0  0.8742330532499721  0.7587355945218692  0.01345325196799374  1.0000
  C   C22       1.0  0.8787755596486381  0.7482022916445834  0.14947499173266854  1.0000
  C   C23       1.0  0.926313696708088  0.8287928117276598  0.21433196188948678  1.0000
  C   C24       1.0  0.969677534545145  0.9196037390627773  0.1427427578290883  1.0000
  C   C25       1.0  0.9652456852471699  0.9304815841575595  0.00671335920345506  1.0000
  S   S1        1.0  0.932225576824484  0.8148125742050837  0.3888686407533437  1.0000
  C   C26       1.0  0.8563940116664679  0.934534782751754  0.40650855041951306  1.0000
  H   H9        1.0  0.9041314483697876  0.3284708021511282  0.5380314768956023  1.0000
  H   H10       1.0  0.9111586966972108  0.07147281314634757  0.7796954673126144  1.0000
  H   H11       1.0  0.9129820774487536  0.6542521326789316  0.77955993635989  1.0000
  H   H12       1.0  0.9000078355183044  0.8915802117986382  0.41714679242358943  1.0000
  H   H13       1.0  0.9039225663632132  0.4355348966723214  0.5380453809745975  1.0000
  H   H14       1.0  0.8362393538903857  0.6966216199262097  0.9653930751754902  1.0000
  H   H15       1.0  0.8450407342017613  0.6777550473827183  0.2043559812912069  1.0000
  H   H16       1.0  0.0068682043308399  0.981811959429707  0.19237186019985986  1.0000
  H   H17       1.0  0.9999331124326382  0.0005134251770990694  0.9532691310724883  1.0000
  H   H18       1.0  0.8714966666139955  0.03014824453687437  0.35800730123968516  1.0000
  H   H19       1.0  0.8476593948792961  0.9456065708790315  0.5115697327655346  1.0000
  H   H20       1.0  0.8032872174266011  0.901581571739404  0.36306397255803646  1.0000
  C   C27       1.0  0.9057274858995918  0.37798605637293603  0.20872696551213443  1.0000
  C   C28       1.0  0.9741236954859432  0.44368241167642397  0.20409457005352305  1.0000
  C   C29       1.0  0.008816896844131783  0.47686168751649394  0.08461816508287168  1.0000
  C   C30       1.0  0.9741963269546254  0.44346474602170183  0.9688267616370099  1.0000
  C   C31       1.0  0.9057994849820104  0.377770426216411  0.9714671831811188  1.0000
  C   C32       1.0  0.8719483510260462  0.3453978713707928  0.09189501602176642  1.0000
  C   C33       1.0  0.08117408475038301  0.5463606441158604  0.08077148755755448  1.0000
  C   C34       1.0  0.09302614984651503  0.6488057815831341  0.1608792508917143  1.0000
  C   C35       1.0  0.16116825158645454  0.7141031556387247  0.15705790630377736  1.0000
  C   C36       1.0  0.21821562549883566  0.6779860263065882  0.0734887811940379  1.0000
  C   C37       1.0  0.20709134812445207  0.5763918942121273  0.9935419018967755  1.0000
  C   C38       1.0  0.13902584556444064  0.5108648473941657  0.9969592083899195  1.0000
  I   I1        1.0  0.32094925904481997  0.7766573685725717  0.0680312396175895  1.0000
  H   H21       1.0  0.8796434778128956  0.3530188271116774  0.5379400621743042  1.0000
  H   H22       1.0  0.0011047660822767202  0.4676248051283407  0.2937439197001597  1.0000
  H   H23       1.0  0.00018077042274122768  0.47039601597467273  0.8763616765633491  1.0000
  H   H24       1.0  0.8191833653082699  0.2947172806283054  0.09470032823750385  1.0000
  H   H25       1.0  0.8797489173104183  0.3527015913398359  0.6450228427555191  1.0000
  H   H26       1.0  0.04926137397929642  0.6794991400142256  0.22518046141288894  1.0000
  H   H27       1.0  0.16950540714465046  0.7929762900010044  0.21885291980884136  1.0000
  H   H28       1.0  0.2512263416783318  0.5479168450584628  0.9289588138004947  1.0000
  H   H29       1.0  0.1320002256166588  0.43138742798493546  0.9353577604726095  1.0000
  Zn  Zn1       1.0  0.8230723215089809  0.3818773046177206  0.5880393861974988  1.0000
  Zn  Zn2       1.0  0.9884474203905991  0.3738788999918867  0.5921539484820189  1.0000
  C   C39       1.0  0.9057851535526757  0.3726375900664327  0.8272928038365841  1.0000
  C   C40       1.0  0.9057363939441406  0.38312016578291486  0.35290070326403167  1.0000
  C   C41       1.0  0.9057148556803151  0.6150718014716654  0.5849251531063366  1.0000
  C   C42       1.0  0.9058066356831952  0.14068439678623124  0.5952684218068645  1.0000
  O   O2        1.0  0.9684983727883812  0.3818022011937954  0.40284818155990454  1.0000
  O   O3        1.0  0.9685390483877786  0.3678839709991  0.780467809249016  1.0000
  O   O4        1.0  0.9684814360730941  0.5636527032441341  0.5847541954627893  1.0000
  O   O5        1.0  0.9685559286608222  0.1860334809958173  0.5985616965672744  1.0000
  O   O6        1.0  0.8429637568043521  0.5697227263446689  0.5816316367013143  1.0000
  O   O7        1.0  0.8430213688179369  0.37395555442196415  0.7773451812640262  1.0000
  O   O8        1.0  0.8429806931297926  0.38787373979972983  0.3997239921700191  1.0000
  O   O9        1.0  0.8430382490100712  0.19210501028557392  0.5954376045453169  1.0000
