data_image0
_chemical_formula_structural       NC9NC3OCH8C12NH11C12SCH12Zn2C4O8
_chemical_formula_sum              "N3 C42 O9 H31 S1 Zn2"
_cell_length_a       17.728193572023454
_cell_length_b       10.299770795358612
_cell_length_c       10.299780138516091
_cell_angle_alpha    85.57228714023374
_cell_angle_beta     90.6970768647591
_cell_angle_gamma    88.47103896228896

_space_group_name_H-M_alt    "P 1"
_space_group_IT_number       1

loop_
  _space_group_symop_operation_xyz
  'x, y, z'

loop_
  _atom_site_type_symbol
  _atom_site_label
  _atom_site_symmetry_multiplicity
  _atom_site_fract_x
  _atom_site_fract_y
  _atom_site_fract_z
  _atom_site_occupancy
  N   N1        1.0  0.7109620058376698  0.3865064506438929  0.5851532061506783  1.0000
  C   C1        1.0  0.6503390575362737  0.34908257561296785  0.5981603012183003  1.0000
  C   C2        1.0  0.5748718409674312  0.30255970998905135  0.6143487941695773  1.0000
  C   C3        1.0  0.5629399742188239  0.17452597569315387  0.6237768769120331  1.0000
  C   C4        1.0  0.4862156575624392  0.12507930949499513  0.63873009511404  1.0000
  C   C5        1.0  0.4280872557659793  0.20775292139202461  0.6561940665033006  1.0000
  C   C6        1.0  0.3500252494444981  0.1627116239157429  0.6779303028449055  1.0000
  C   C7        1.0  0.2887085817224744  0.24816930729280196  0.6424646463249326  1.0000
  C   C8        1.0  0.21442211054264934  0.208872701596166  0.6626143809482381  1.0000
  C   C9        1.0  0.15212750134745404  0.2968665848822589  0.6250742963203058  1.0000
  N   N2        1.0  0.1020560425570336  0.3676051413491994  0.5948956168820945  1.0000
  C   C10       1.0  0.2008207306975428  0.08399885399844531  0.7192838243780706  1.0000
  C   C11       1.0  0.2612387017421557  0.9988591078863471  0.7561579677067647  1.0000
  C   C12       1.0  0.3354214035611473  0.037666129288284944  0.7361378428424841  1.0000
  O   O1        1.0  0.44147803983862993  0.34153649359643534  0.6548903255464185  1.0000
  C   C13       1.0  0.5092209852599667  0.39890266991767365  0.6062791935993803  1.0000
  H   H1        1.0  0.6098494356030311  0.1050655478176672  0.6216801041624065  1.0000
  H   H2        1.0  0.47853683718041845  0.02143085102931641  0.6367540514631955  1.0000
  H   H3        1.0  0.2986278505406078  0.34498120192176795  0.5980338440419446  1.0000
  H   H4        1.0  0.1435968983466743  0.0527154163395831  0.7354252645779293  1.0000
  H   H5        1.0  0.2505828668761015  0.9027061984797871  0.8010498466779634  1.0000
  H   H6        1.0  0.3809327018107323  0.9704453888371579  0.7685608947084293  1.0000
  H   H7        1.0  0.4997687442157993  0.4348031700153927  0.5027549258656008  1.0000
  H   H8        1.0  0.5221202214256122  0.4833031166078565  0.6628539843728625  1.0000
  C   C14       1.0  0.9064442630957722  0.9956904048646547  0.5900623912207221  1.0000
  C   C15       1.0  0.8845517094668852  0.00588692600341445  0.45811252597075236  1.0000
  C   C16       1.0  0.8735278004362812  0.8939140707452021  0.39121911969546774  1.0000
  C   C17       1.0  0.8846898403441187  0.7705986176179138  0.4580474171326998  1.0000
  C   C18       1.0  0.9065810282849474  0.7584108708227502  0.5899977988851168  1.0000
  C   C19       1.0  0.9173360156748924  0.8715172301774055  0.6552662654333692  1.0000
  C   C20       1.0  0.8503670797385929  0.9057547874994458  0.25162382900251967  1.0000
  C   C21       1.0  0.7954213340368863  0.9995755186310529  0.20506996082561768  1.0000
  C   C22       1.0  0.7736548214425751  0.010589211817159105  0.07368261844939683  1.0000
  C   C23       1.0  0.8064221159709524  0.9282209440901338  0.9867588370818465  1.0000
  C   C24       1.0  0.8611868453385635  0.8346067935939423  0.032417677168170345  1.0000
  C   C25       1.0  0.8830138126473123  0.8233341445091013  0.16377655384103362  1.0000
  N   N3        1.0  0.7841256406136254  0.9396194691945773  0.8523739214280401  1.0000
  H   H9        1.0  0.9147542440613018  0.319258872500906  0.6403577392630513  1.0000
  H   H10       1.0  0.8770222800450357  0.1011417461393429  0.4065750252966076  1.0000
  H   H11       1.0  0.875266049542411  0.684011007182779  0.4074027876813415  1.0000
  H   H12       1.0  0.9342245555046311  0.8628830675867515  0.7570597280042102  1.0000
  H   H13       1.0  0.9149553962771958  0.42631274369077443  0.6402631308512341  1.0000
  H   H14       1.0  0.7685715897669967  0.06330277547203522  0.2706013749214007  1.0000
  H   H15       1.0  0.7311114094087039  0.0831172548731327  0.03971274030085037  1.0000
  H   H16       1.0  0.8871033705626158  0.7705788907892628  0.966173773788769  1.0000
  H   H17       1.0  0.9261358583525809  0.7512880050757978  0.19632136814268608  1.0000
  H   H18       1.0  0.8082308154352382  0.878640653864534  0.7868377472252548  1.0000
  H   H19       1.0  0.7433486356395275  0.009121837350077655  0.8174249236885158  1.0000
  C   C26       1.0  0.9065429606747049  0.3769378646143158  0.20867876513296313  1.0000
  C   C27       1.0  0.8347801520354878  0.32239463788785216  0.21039069152514056  1.0000
  C   C28       1.0  0.7983875320052084  0.2948728588627121  0.09411046822646618  1.0000
  C   C29       1.0  0.8347184107317932  0.32262306048463607  0.9750852369310357  1.0000
  C   C30       1.0  0.9064823440516038  0.3771634093769094  0.97138150050987  1.0000
  C   C31       1.0  0.941992727834045  0.4040161821867052  0.08869128145812333  1.0000
  C   C32       1.0  0.7224674663991566  0.23718577413549324  0.09698432498443399  1.0000
  C   C33       1.0  0.6665856861497538  0.281547427822463  0.004632086325061291  1.0000
  C   C34       1.0  0.595146256981439  0.22722144573487335  0.007573883198528364  1.0000
  C   C35       1.0  0.5785467426895872  0.12821400889470436  0.10273199921788145  1.0000
  C   C36       1.0  0.6337567603357479  0.08308588916095871  0.19466192453994036  1.0000
  C   C37       1.0  0.7052428452559862  0.1372361867803935  0.19208371326262874  1.0000
  S   S1        1.0  0.4869110643685745  0.05837160892669924  0.10605729391314456  1.0000
  C   C38       1.0  0.44823220375379225  0.1744560362583929  0.21381256128038384  1.0000
  H   H20       1.0  0.9338988720314834  0.3976732775703613  0.5354837304015736  1.0000
  H   H21       1.0  0.8065739475399323  0.302835533089433  0.30223926666337153  1.0000
  H   H22       1.0  0.8073487439036245  0.29994444580497226  0.8853333692636229  1.0000
  H   H23       1.0  0.9973548552696739  0.4460931678093405  0.08660223548869461  1.0000
  H   H24       1.0  0.9338109818102446  0.39800498867641876  0.6425119430806872  1.0000
  H   H25       1.0  0.6778212270199812  0.3593721352849282  0.9312267344470491  1.0000
  H   H26       1.0  0.5526324937572665  0.26260933898053107  0.9361805635416189  1.0000
  H   H27       1.0  0.6213679468321562  0.00601289240535019  0.2681633501900582  1.0000
  H   H28       1.0  0.7473502227871041  0.09981694813034747  0.26336627717645245  1.0000
  H   H29       1.0  0.48014178934243623  0.1668837714229212  0.307622097836326  1.0000
  H   H30       1.0  0.38834108208927304  0.152221811987574  0.23309521937028532  1.0000
  H   H31       1.0  0.45116727505529275  0.2750360659644535  0.1672854097553631  1.0000
  Zn  Zn1       1.0  0.8238233069833407  0.3810484729691832  0.5879721551035157  1.0000
  Zn  Zn2       1.0  0.9891947642601087  0.37305251855193844  0.5920873060048439  1.0000
  C   C39       1.0  0.9064911831541609  0.37194722387578283  0.8272147253229163  1.0000
  C   C40       1.0  0.9065286942241622  0.3821553189711644  0.35284490804468027  1.0000
  C   C41       1.0  0.9065517082168706  0.614239117620089  0.584835016971256  1.0000
  C   C42       1.0  0.9064681124464393  0.13986186768832898  0.5952246843596065  1.0000
  O   O2        1.0  0.9692815114530063  0.38086625559875276  0.402790061380049  1.0000
  O   O3        1.0  0.9692514754173639  0.36716656303574147  0.7803925025576324  1.0000
  O   O4        1.0  0.9692995040610642  0.5628203727382564  0.58466915202027  1.0000
  O   O5        1.0  0.9692334263886353  0.18521245788605434  0.5985133131422185  1.0000
  O   O6        1.0  0.8437845884216526  0.5688885363651057  0.5815461465550118  1.0000
  O   O7        1.0  0.843736560059804  0.3732362869311585  0.7772694277179779  1.0000
  O   O8        1.0  0.8437665962616261  0.3869359337745173  0.39966542521668513  1.0000
  O   O9        1.0  0.8437185111847645  0.19128212680204104  0.5953887743429176  1.0000
