data_image0
_chemical_formula_structural       NC9NC3OCH8C12NH11C15H12Zn2C4O8
_chemical_formula_sum              "N3 C44 O9 H31 Zn2"
_cell_length_a       17.728193572023454
_cell_length_b       10.299770795358612
_cell_length_c       10.299157797200024
_cell_angle_alpha    85.53969178690444
_cell_angle_beta     90.72660703466438
_cell_angle_gamma    88.47103896228896

_space_group_name_H-M_alt    "P 1"
_space_group_IT_number       1

loop_
  _space_group_symop_operation_xyz
  'x, y, z'

loop_
  _atom_site_type_symbol
  _atom_site_label
  _atom_site_symmetry_multiplicity
  _atom_site_fract_x
  _atom_site_fract_y
  _atom_site_fract_z
  _atom_site_occupancy
  N   N1        1.0  0.7105249983145897  0.3873347202908888  0.58499418434193  1.0000
  C   C1        1.0  0.6499060675495251  0.34990323073796237  0.5980027413429518  1.0000
  C   C2        1.0  0.5744438511639094  0.3033708881604984  0.6141930538010771  1.0000
  C   C3        1.0  0.5625148964924999  0.17533163454279288  0.6236221962135815  1.0000
  C   C4        1.0  0.48579519847671787  0.1258762145369312  0.6385770950836405  1.0000
  C   C5        1.0  0.4276721908239298  0.2085396027988078  0.6560430293372408  1.0000
  C   C6        1.0  0.3496168982320524  0.1634855806481088  0.6777817087247175  1.0000
  C   C7        1.0  0.2882892761375996  0.2489640260800663  0.6423120660396893  1.0000
  C   C8        1.0  0.2140090286603383  0.20965562446767727  0.6624640653938891  1.0000
  C   C9        1.0  0.1517028243585415  0.2976714842057637  0.6249197614454032  1.0000
  N   N2        1.0  0.10162204419848  0.3684277076627087  0.594737690072312  1.0000
  C   C10       1.0  0.20042515245818132  0.08474860184343869  0.7191398781899561  1.0000
  C   C11       1.0  0.26085451291832096  0.9995872691300132  0.756018165990683  1.0000
  C   C12       1.0  0.3350310310676624  0.03840601057247128  0.7359957909630059  1.0000
  O   O1        1.0  0.4410625722066154  0.3423239382300687  0.6547391418462987  1.0000
  C   C13       1.0  0.5087905029772785  0.399718572137862  0.6061225462475346  1.0000
  H   H1        1.0  0.6094237102408854  0.10587243414524394  0.6215251877970287  1.0000
  H   H2        1.0  0.4781157677487958  0.0222289128728117  0.6366008293352254  1.0000
  H   H3        1.0  0.2981948214946921  0.3458019310764322  0.5978762699534328  1.0000
  H   H4        1.0  0.1432063057572301  0.053455714776319496  0.7352831326081655  1.0000
  H   H5        1.0  0.2502125439273005  0.9034080794357847  0.8009150905878979  1.0000
  H   H6        1.0  0.3805523439122185  0.9711662892466372  0.7684224870202336  1.0000
  H   H7        1.0  0.49930628611493927  0.43567967668340124  0.5025866428961208  1.0000
  H   H8        1.0  0.5217072135502534  0.4840858992124184  0.6627036957487584  1.0000
  C   C14       1.0  0.9060087718858484  0.9965158006110963  0.5899039211801882  1.0000
  C   C15       1.0  0.8840754625482625  0.006789566910806899  0.4579392254154748  1.0000
  C   C16       1.0  0.8730308919718898  0.8948558719194469  0.3910383006509055  1.0000
  C   C17       1.0  0.8842135733151546  0.7715012966408639  0.45787410925951  1.0000
  C   C18       1.0  0.9061455171242155  0.7592363043823819  0.5898393215847226  1.0000
  C   C19       1.0  0.9169206641604387  0.8723044547309576  0.6551151239870405  1.0000
  C   C20       1.0  0.8498270541024453  0.9067783095657665  0.2514273201350625  1.0000
  C   C21       1.0  0.7948669291826423  0.0006262939350589747  0.20486821953274603  1.0000
  C   C22       1.0  0.7730598346275805  0.011716902973936572  0.07346610986658098  1.0000
  C   C23       1.0  0.8058002807745236  0.9293995215549001  0.9865325586942748  1.0000
  C   C24       1.0  0.8605791129105047  0.8357586417820655  0.03219653060926486  1.0000
  C   C25       1.0  0.8824466533877259  0.8244090935086447  0.16357017137266716  1.0000
  N   N3        1.0  0.78346229758795  0.9408767173303548  0.8521325388380556  1.0000
  H   H9        1.0  0.9143342877103932  0.3200548246988657  0.6402049221718344  1.0000
  H   H10       1.0  0.8765301146003839  0.10207455776746333  0.4063959321801769  1.0000
  H   H11       1.0  0.8747741397709464  0.6849433342280732  0.4072237876013247  1.0000
  H   H12       1.0  0.9338406452099172  0.8636107009282541  0.7569200276415431  1.0000
  H   H13       1.0  0.914535410704333  0.4271087512737248  0.6401103031264981  1.0000
  H   H14       1.0  0.7680374257763448  0.06431518783706003  0.2704069990366036  1.0000
  H   H15       1.0  0.7305059302263566  0.08426483243676719  0.03949241367109857  1.0000
  H   H16       1.0  0.8864751772024896  0.7717695190168263  0.9659451817415041  1.0000
  H   H17       1.0  0.9255787512970557  0.7523439019193267  0.1961186435511011  1.0000
  H   H18       1.0  0.8075472300757038  0.8799362677259214  0.7865889986921837  1.0000
  H   H19       1.0  0.7426744978232056  0.010399545082008244  0.8171796130033777  1.0000
  C   C26       1.0  0.9059896704815238  0.3779865272775167  0.20847742945191516  1.0000
  C   C27       1.0  0.8273840272662705  0.36380725699962446  0.2066958680877773  1.0000
  C   C28       1.0  0.787690209637885  0.356501154029744  0.08865427676988191  1.0000
  C   C29       1.0  0.8276082107130772  0.3635876876983517  0.9714341772004458  1.0000
  C   C30       1.0  0.9061645971494283  0.37776554450830435  0.9712658285277556  1.0000
  C   C31       1.0  0.9448966071054544  0.38487641284090546  0.09030632375072245  1.0000
  C   C32       1.0  0.7045864424230247  0.34151584596864004  0.08781706542422052  1.0000
  C   C33       1.0  0.6706146919822296  0.25617926689733084  0.0058714250302183135  1.0000
  C   C34       1.0  0.5924105819630077  0.24217051208851226  0.005115825319809364  1.0000
  C   C35       1.0  0.5467851996408323  0.31255660246865347  0.08680315638772185  1.0000
  C   C36       1.0  0.5803532363181846  0.3987582442886155  0.16776194829764868  1.0000
  C   C37       1.0  0.6585565862060306  0.41277123419478046  0.1686654794239293  1.0000
  C   C38       1.0  0.4625376805924228  0.2998142895578024  0.0836428146279391  1.0000
  C   C39       1.0  0.4286153995912486  0.39522150279178825  0.9853784397423904  1.0000
  C   C40       1.0  0.4007363487989022  0.4736740539968043  0.9045783114753352  1.0000
  H   H20       1.0  0.054413597265266844  0.4039515566621936  0.41919625715265374  1.0000
  H   H21       1.0  0.7970286382561362  0.3566498970107226  0.2974781179306938  1.0000
  H   H22       1.0  0.7971448311541266  0.35982236996033223  0.8800433966906347  1.0000
  H   H23       1.0  0.005489524785136757  0.39580844168559315  0.09089220545530141  1.0000
  H   H24       1.0  0.9363831076956302  0.38317723722521535  0.6437287923229333  1.0000
  H   H25       1.0  0.7046153708993113  0.19917004086782653  0.9433513330388164  1.0000
  H   H26       1.0  0.5674136965352786  0.17622335304534897  0.9409399227286674  1.0000
  H   H27       1.0  0.5459118014725589  0.4554795998967065  0.22992608788712054  1.0000
  H   H28       1.0  0.6829383352211321  0.48085535560626647  0.23118462831380437  1.0000
  H   H29       1.0  0.44745850951925165  0.2003032277461898  0.05983081989502148  1.0000
  H   H30       1.0  0.4385184753016458  0.3164203728742283  0.18026435894953718  1.0000
  H   H31       1.0  0.3762820788169718  0.5425516330605962  0.8336436964270142  1.0000
  Zn  Zn1       1.0  0.8233871701565825  0.3818750923669336  0.5878134501307408  1.0000
  Zn  Zn2       1.0  0.988759898491044  0.37387672888702594  0.5919290635547556  1.0000
  C   C41       1.0  0.9061289418215872  0.37263378757277166  0.8270829100362977  1.0000
  C   C42       1.0  0.9060199330141189  0.38311958490616993  0.3526597759277963  1.0000
  C   C43       1.0  0.9061146024138453  0.6150675735391533  0.5846759593996116  1.0000
  C   C44       1.0  0.9060342157278397  0.14068424136147284  0.5950667945353871  1.0000
  O   O2        1.0  0.9687881769364002  0.38180128299379645  0.40261054285232256  1.0000
  O   O3        1.0  0.9688747719792926  0.36788053706866974  0.7802554246838656  1.0000
  O   O4        1.0  0.9688623470268866  0.5636489257568122  0.5845100758062225  1.0000
  O   O5        1.0  0.9688005454376262  0.18603290635329417  0.5983557929436714  1.0000
  O   O6        1.0  0.8433464667764028  0.56971891763153  0.5813867193305366  1.0000
  O   O7        1.0  0.8433588919892325  0.3739520892525672  0.7771319988259866  1.0000
  O   O8        1.0  0.8432722966302696  0.3878727903720609  0.3994855554952488  1.0000
  O   O9        1.0  0.843284665149078  0.19210440441478283  0.5952309029616036  1.0000
