data_image0
_chemical_formula_structural       NC9NC3OCH8C12SCH12C12BrH9Zn2C4O8
_chemical_formula_sum              "N2 C42 O9 H29 S1 Br1 Zn2"
_cell_length_a       17.728193572023454
_cell_length_b       10.299776766347529
_cell_length_c       10.299148005577397
_cell_angle_alpha    85.55397783742741
_cell_angle_beta     90.67765201936251
_cell_angle_gamma    88.43488659094774

_space_group_name_H-M_alt    "P 1"
_space_group_IT_number       1

loop_
  _space_group_symop_operation_xyz
  'x, y, z'

loop_
  _atom_site_type_symbol
  _atom_site_label
  _atom_site_symmetry_multiplicity
  _atom_site_fract_x
  _atom_site_fract_y
  _atom_site_fract_z
  _atom_site_occupancy
  N   N1        1.0  0.7107236266414731  0.38711160006307077  0.5851631847287784  1.0000
  C   C1        1.0  0.6501118998076413  0.3496819457042146  0.5981677477414431  1.0000
  C   C2        1.0  0.5746586294182929  0.30315188766689194  0.6143530947127092  1.0000
  C   C3        1.0  0.5627718206937425  0.17511308097468947  0.623769363475126  1.0000
  C   C4        1.0  0.4860627549363972  0.1256597145169569  0.638719035568698  1.0000
  C   C5        1.0  0.4279007809850302  0.20832673033240012  0.6561927517151414  1.0000
  C   C6        1.0  0.3498511240318296  0.16327592815543124  0.6779264870833199  1.0000
  C   C7        1.0  0.2885099277679602  0.24874922450836334  0.6424660946136254  1.0000
  C   C8        1.0  0.21423400545363402  0.20944382935680594  0.6626137537951258  1.0000
  C   C9        1.0  0.1519143340310172  0.2974542172860657  0.6250789976211979  1.0000
  N   N2        1.0  0.10182272765487162  0.36820604192413575  0.5949046017357693  1.0000
  C   C10       1.0  0.2006675463807997  0.08454513649097883  0.7192759406222933  1.0000
  C   C11       1.0  0.2611096618618002  0.9993891898392481  0.7561449779016216  1.0000
  C   C12       1.0  0.3352819693251366  0.03820494208644387  0.736126891710734  1.0000
  O   O1        1.0  0.44124285853490103  0.34211202006452623  0.6549021233520933  1.0000
  C   C13       1.0  0.5089740537847927  0.3994990731963497  0.60629229631635  1.0000
  H   H1        1.0  0.6097070978024566  0.10565292390456249  0.6216655334369354  1.0000
  H   H2        1.0  0.4784222374855658  0.022011176987539516  0.6367325646525759  1.0000
  H   H3        1.0  0.2984022176361018  0.34558058911405576  0.598040873620896  1.0000
  H   H4        1.0  0.1434520927100175  0.05325465953955688  0.7354157376280932  1.0000
  H   H5        1.0  0.25048047715388744  0.9032166229708178  0.8010313821793458  1.0000
  H   H6        1.0  0.3808117012395443  0.970970023561433  0.7685462095670321  1.0000
  H   H7        1.0  0.49952835678400814  0.4354432782488986  0.5027622765210902  1.0000
  H   H8        1.0  0.5218316506133532  0.483876546187451  0.662880516936782  1.0000
  C   C14       1.0  0.9063479588773264  0.9962900756352404  0.5900341634542963  1.0000
  C   C15       1.0  0.9108459144477586  0.9844914750139938  0.7266661861367754  1.0000
  C   C16       1.0  0.9130524059717824  0.8613779206711919  0.7959022686330719  1.0000
  C   C17       1.0  0.9107016102242359  0.7492106720672971  0.7266777828427293  1.0000
  C   C18       1.0  0.9062056703495851  0.7590172278466168  0.5900450609512575  1.0000
  C   C19       1.0  0.9040535872803761  0.8829944732716013  0.5224880724852536  1.0000
  C   C20       1.0  0.9178024189664595  0.8499606406278228  0.9404433251707578  1.0000
  C   C21       1.0  0.8745922358517132  0.7585784472656789  0.013413049099883279  1.0000
  C   C22       1.0  0.8790852193641304  0.7480668113223007  0.149440331900481  1.0000
  C   C23       1.0  0.9265997432543833  0.8286676624869257  0.2142999450503683  1.0000
  C   C24       1.0  0.9699896453368727  0.9194671863614227  0.1427078236509437  1.0000
  C   C25       1.0  0.9656073217135894  0.9303233633023161  0.00667288167728064  1.0000
  S   S1        1.0  0.9324480779396697  0.814715226951678  0.3888437364763969  1.0000
  C   C26       1.0  0.8566100904315104  0.9344402453635763  0.4064843649883414  1.0000
  H   H9        1.0  0.9046637228502824  0.3282379248521048  0.5379719000657837  1.0000
  H   H10       1.0  0.9116029859899805  0.07127843055939875  0.7796457385569524  1.0000
  H   H11       1.0  0.9134264160857233  0.6540577285032265  0.7795102020811917  1.0000
  H   H12       1.0  0.9005841217758038  0.8913280787506924  0.4170822894095465  1.0000
  H   H13       1.0  0.9044548357815014  0.4353020215880817  0.5379858047113848  1.0000
  H   H14       1.0  0.8366160342735296  0.6964568171535123  0.965350913802167  1.0000
  H   H15       1.0  0.8453304128097642  0.6776283090657621  0.20432355791987578  1.0000
  H   H16       1.0  0.007162246125687943  0.9816833121593729  0.1923389484623762  1.0000
  H   H17       1.0  0.000314206909483028  0.00034669117858365794  0.9532264756350703  1.0000
  H   H18       1.0  0.8717304037463715  0.030045981373668207  0.35798113932911424  1.0000
  H   H19       1.0  0.8478372228986013  0.9455287687105189  0.5115498286934226  1.0000
  H   H20       1.0  0.8035191135226915  0.901480114054524  0.3630380167123991  1.0000
  C   C27       1.0  0.906379653787469  0.3777007240832915  0.2086539691602649  1.0000
  C   C28       1.0  0.8353846991247189  0.4419118505369175  0.2014497538256239  1.0000
  C   C29       1.0  0.7992824909173674  0.4744201354252169  0.08065614935617238  1.0000
  C   C30       1.0  0.83513284742714  0.4418512205847227  0.9661664444622295  1.0000
  C   C31       1.0  0.906173937561962  0.3776065974399436  0.9714251966732661  1.0000
  C   C32       1.0  0.9413597511384987  0.3459249776634765  0.09308181727214748  1.0000
  C   C33       1.0  0.7241789361711255  0.5423496636753382  0.07407988868555537  1.0000
  C   C34       1.0  0.7083083338148891  0.6444336819755228  0.1537645120579636  1.0000
  C   C35       1.0  0.6375867961462658  0.7082607378560994  0.14737926177542438  1.0000
  C   C36       1.0  0.5819319565592178  0.6710077219425592  0.061627619525923105  1.0000
  C   C37       1.0  0.5970444575386091  0.5697472082948429  0.9820716630206063  1.0000
  C   C38       1.0  0.6677018776684824  0.5057012884124623  0.9880627736208312  1.0000
  Br  Br1       1.0  0.4853707266778425  0.7583453518639323  0.053173813179213436  1.0000
  H   H21       1.0  0.9337027729226139  0.3530542980011835  0.5388968936530469  1.0000
  H   H22       1.0  0.8075336330326601  0.46520419624329334  0.29009596992267594  1.0000
  H   H23       1.0  0.8080262200068745  0.46825627270993464  0.8726752766838111  1.0000
  H   H24       1.0  0.9961210232638938  0.2964012188595533  0.0979225938003494  1.0000
  H   H25       1.0  0.04047084821395486  0.2570732927830557  0.7740071776972282  1.0000
  H   H26       1.0  0.7508830586377662  0.6759924435213616  0.21973317019298566  1.0000
  H   H27       1.0  0.6261761686120899  0.7868779438523694  0.20890102552695256  1.0000
  H   H28       1.0  0.5540229110504334  0.5403620124935855  0.9157849151577069  1.0000
  H   H29       1.0  0.6778498672734182  0.426455832761228  0.9267106413354012  1.0000
  Zn  Zn1       1.0  0.8235863890763145  0.3816523930899598  0.5879818472451412  1.0000
  Zn  Zn2       1.0  0.9889599899253364  0.3736546438736892  0.5920965772026123  1.0000
  C   C39       1.0  0.9062121135752382  0.3724507892700595  0.8272450147248835  1.0000
  C   C40       1.0  0.906336070960874  0.38285779896079397  0.35283358215099403  1.0000
  C   C41       1.0  0.9062300570797213  0.6148463938770057  0.5848674872455453  1.0000
  C   C42       1.0  0.9063180712983954  0.1404606367731991  0.5952111774456814  1.0000
  O   O2        1.0  0.9690798648937148  0.38154779051686827  0.40278309586169825  1.0000
  O   O3        1.0  0.9689830564857779  0.36768971143867457  0.7804181119671396  1.0000
  O   O4        1.0  0.968996699714874  0.5634272684175927  0.5846965226352854  1.0000
  O   O5        1.0  0.9690661652583387  0.1858102455692714  0.59850458641067  1.0000
  O   O6        1.0  0.84348015730942  0.5694967941250311  0.581573836626097  1.0000
  O   O7        1.0  0.8434665138044274  0.37376079745741553  0.777295356731615  1.0000
  O   O8        1.0  0.8435633226920948  0.3876188314699629  0.39965877915764936  1.0000
  O   O9        1.0  0.8435496230291064  0.19188127722169868  0.5953803670785167  1.0000
