data_image0
_chemical_formula_structural       NC9NC3OCH8C12ClH9C12NCOCH13Zn2C4O8
_chemical_formula_sum              "N3 C43 O10 H30 Cl1 Zn2"
_cell_length_a       17.728193572023454
_cell_length_b       10.299768534541528
_cell_length_c       10.299158637457994
_cell_angle_alpha    85.58253282463848
_cell_angle_beta     90.68674526026635
_cell_angle_gamma    88.47167022583639

_space_group_name_H-M_alt    "P 1"
_space_group_IT_number       1

loop_
  _space_group_symop_operation_xyz
  'x, y, z'

loop_
  _atom_site_type_symbol
  _atom_site_label
  _atom_site_symmetry_multiplicity
  _atom_site_fract_x
  _atom_site_fract_y
  _atom_site_fract_z
  _atom_site_occupancy
  N   N1        1.0  0.7111220610319674  0.3863884110851825  0.5852310371195257  1.0000
  C   C1        1.0  0.6504974612089252  0.34896583246360047  0.5982347129179821  1.0000
  C   C2        1.0  0.5750281895713866  0.3024445798705784  0.6144189562535387  1.0000
  C   C3        1.0  0.5630943893382607  0.17441264903188647  0.6238335047517236  1.0000
  C   C4        1.0  0.4863681271830315  0.12496752819645396  0.6387820883166442  1.0000
  C   C5        1.0  0.4282384779893831  0.20764174291671011  0.656256032159273  1.0000
  C   C6        1.0  0.3501738394951306  0.16260246209560236  0.6779884716871789  1.0000
  C   C7        1.0  0.2888615538536398  0.24805675258850957  0.6425303213012339  1.0000
  C   C8        1.0  0.2145726605519742  0.20876199532036588  0.6626768054544179  1.0000
  C   C9        1.0  0.1522826717810602  0.29675230834594823  0.6251443962213699  1.0000
  N   N2        1.0  0.10221492737348462  0.36748799466270743  0.5949718870523382  1.0000
  C   C10       1.0  0.2009643639299337  0.08389346915551954  0.7193355343701313  1.0000
  C   C11       1.0  0.2613778059513552  0.9987572188998548  0.756202280146538  1.0000
  C   C12       1.0  0.3355629125840862  0.037562405790141584  0.7361853588978171  1.0000
  O   O1        1.0  0.4416303765388472  0.34142407210157155  0.6549668808061488  1.0000
  C   C13       1.0  0.5093788921145415  0.3987861095561185  0.6063594888878803  1.0000
  H   H1        1.0  0.6100035660233561  0.10495265839363799  0.6217290118527041  1.0000
  H   H2        1.0  0.47868875981328807  0.021319808676780072  0.6367945850594605  1.0000
  H   H3        1.0  0.2987862376837694  0.3448644843906812  0.5981077997574207  1.0000
  H   H4        1.0  0.1437385927097231  0.052611510547342366  0.7354743921836862  1.0000
  H   H5        1.0  0.25071651202028455  0.9026085012786946  0.8010859747212451  1.0000
  H   H6        1.0  0.3810702842778891  0.9703446737959827  0.7686027434342269  1.0000
  H   H7        1.0  0.4999378839348388  0.43467853381354704  0.5028337341086733  1.0000
  H   H8        1.0  0.5222727487579455  0.483190079190682  0.6629464891252423  1.0000
  C   C14       1.0  0.9066009459806758  0.995576079075695  0.5900976598517413  1.0000
  C   C15       1.0  0.9115965054495394  0.004852184905227652  0.45375198250721316  1.0000
  C   C16       1.0  0.9142003422619047  0.8924095909010937  0.3846737392773101  1.0000
  C   C17       1.0  0.9117406321321019  0.7695575076892812  0.45377106232215714  1.0000
  C   C18       1.0  0.9067432973975375  0.758289958593856  0.5901166334003631  1.0000
  C   C19       1.0  0.9042019954165146  0.8718547094454397  0.6575164098902848  1.0000
  C   C20       1.0  0.9194862311072879  0.9032765568929275  0.24043140396885043  1.0000
  C   C21       1.0  0.8765686185248439  0.9988644367647315  0.16489802219031024  1.0000
  C   C22       1.0  0.8816110838761403  0.008893693428290161  0.02914269648574086  1.0000
  C   C23       1.0  0.9294986010301495  0.9238601144611458  0.9672270729273853  1.0000
  C   C24       1.0  0.9724041277378626  0.8285845296596716  0.04124892016584658  1.0000
  C   C25       1.0  0.9674956722119419  0.8181565506108459  0.17702222700776482  1.0000
  Cl  Cl1       1.0  0.9357410399328716  0.9366934133161154  0.7968960872773141  1.0000
  H   H9        1.0  0.9046586722560119  0.31949704649012856  0.6420478571845156  1.0000
  H   H10       1.0  0.9145157468142018  0.09970486104664444  0.40109164805201414  1.0000
  H   H11       1.0  0.9126905385343963  0.682659125307213  0.4008481210345616  1.0000
  H   H12       1.0  0.9003473869808276  0.8639304690216365  0.762700804549516  1.0000
  H   H13       1.0  0.9048691247096974  0.4265412987870069  0.6420763279570614  1.0000
  H   H14       1.0  0.8384044699584038  0.06470122120100408  0.21069134644849075  1.0000
  H   H15       1.0  0.8481160200133787  0.08260652650749578  0.9721962014758692  1.0000
  H   H16       1.0  0.009726993550375651  0.7627411905773063  0.993745149791954  1.0000
  H   H17       1.0  0.0019486133514039494  0.7446902076504947  0.23249826160687137  1.0000
  C   C26       1.0  0.9067428425139824  0.3767916560610818  0.20873583582531374  1.0000
  C   C27       1.0  0.9085217179397324  0.5134076842946549  0.19746937097886885  1.0000
  C   C28       1.0  0.909364430189526  0.5828166178601444  0.07459801341979166  1.0000
  C   C29       1.0  0.9083773232715845  0.513774528905169  0.9621543032932554  1.0000
  C   C30       1.0  0.9066013945296467  0.37707445015386076  0.971478533678162  1.0000
  C   C31       1.0  0.9057983883586584  0.3094233903485182  0.09515756184571211  1.0000
  C   C32       1.0  0.9112471664571176  0.7273395679547519  0.0636530371886821  1.0000
  C   C33       1.0  0.9575775630654108  0.7929338275397932  0.14737573528603054  1.0000
  C   C34       1.0  0.9593554673072444  0.9289372485111105  0.13694523133000902  1.0000
  C   C35       1.0  0.9153168033704315  0.0020502234028367816  0.041700255191830404  1.0000
  C   C36       1.0  0.8680877844043153  0.9368597763741688  0.9597382620178565  1.0000
  C   C37       1.0  0.866340867328763  0.8008827670716823  0.9699085514724519  1.0000
  N   N3        1.0  0.9150547535150684  0.1421075665685274  0.03046119100541622  1.0000
  C   C38       1.0  0.9797246830454654  0.21796941202866194  0.05530507718752897  1.0000
  O   O2        1.0  0.044779506043062245  0.16541328644787257  0.06544051253406291  1.0000
  C   C39       1.0  0.9708995001013359  0.36220972770888693  0.05969074763223414  1.0000
  H   H18       1.0  0.9060822531163355  0.3242402835683733  0.5405457622804866  1.0000
  H   H19       1.0  0.9082016903974802  0.5662399092314738  0.28441332654013163  1.0000
  H   H20       1.0  0.9100232496388048  0.5667080982733554  0.8672247648763998  1.0000
  H   H21       1.0  0.9044288834903544  0.20404813111009412  0.10313281660695961  1.0000
  H   H22       1.0  0.9037075494135983  0.11902268539100525  0.7817967246026201  1.0000
  H   H23       1.0  0.9928871982655775  0.7390008535740764  0.22044666418318304  1.0000
  H   H24       1.0  0.9941872419002646  0.976593050971734  0.20484529510673832  1.0000
  H   H25       1.0  0.8327997993129788  0.991666703283199  0.8872371806752652  1.0000
  H   H26       1.0  0.82903679969941  0.7532996639447824  0.9056311518450588  1.0000
  H   H27       1.0  0.8661456099814848  0.19192576511452586  0.9942972521806213  1.0000
  H   H28       1.0  0.9178404768447638  0.3864883993644015  0.10978746235337167  1.0000
  H   H29       1.0  0.9688792895753162  0.40897426834037987  0.9589225821101159  1.0000
  H   H30       1.0  0.01905164103967083  0.400649935334886  0.11354564863501038  1.0000
  Zn  Zn1       1.0  0.8239830236117954  0.3809306916665747  0.5880495356722983  1.0000
  Zn  Zn2       1.0  0.9893539864376848  0.3729351144983728  0.5921640259707235  1.0000
  C   C40       1.0  0.9066254798903562  0.37184747340712065  0.8273036352738028  1.0000
  C   C41       1.0  0.9067133362870635  0.38201988408329934  0.3529100988074445  1.0000
  C   C42       1.0  0.906713459058831  0.6141191047950798  0.5849377825875073  1.0000
  C   C43       1.0  0.9066253003850071  0.13974669517524396  0.5952760192899145  1.0000
  O   O3        1.0  0.96946085122481  0.3807345796639843  0.40285772599653225  1.0000
  O   O4        1.0  0.9693906992003383  0.36706333991761864  0.7804784371455586  1.0000
  O   O5        1.0  0.9694608972410821  0.5627007876105263  0.5847662753073324  1.0000
  O   O6        1.0  0.9693905967739503  0.1850971439533784  0.598569789055708  1.0000
  O   O7        1.0  0.8439463568425377  0.5687686649414785  0.5816437711764091  1.0000
  O   O8        1.0  0.8438761591023837  0.37313277749857643  0.7773558638075562  1.0000
  O   O9        1.0  0.8439463114581612  0.3868039714085185  0.3997335912480615  1.0000
  O   O10       1.0  0.8438760569844254  0.19116652644552024  0.5954457516753833  1.0000
