data_image0
_chemical_formula_structural       NC9NC3OCH8C13OH12C13NH13Zn2C4O8
_chemical_formula_sum              "N3 C43 O10 H33 Zn2"
_cell_length_a       17.728193572023454
_cell_length_b       10.299150109392551
_cell_length_c       10.299780419254978
_cell_angle_alpha    85.552664501727
_cell_angle_beta     90.69152596638011
_cell_angle_gamma    88.43520969070386

_space_group_name_H-M_alt    "P 1"
_space_group_IT_number       1

loop_
  _space_group_symop_operation_xyz
  'x, y, z'

loop_
  _atom_site_type_symbol
  _atom_site_label
  _atom_site_symmetry_multiplicity
  _atom_site_fract_x
  _atom_site_fract_y
  _atom_site_fract_z
  _atom_site_occupancy
  N   N1        1.0  0.7105329423540517  0.38673826151762136  0.5847548992655056  1.0000
  C   C1        1.0  0.6499229650706659  0.3493098077436829  0.5977726448413814  1.0000
  C   C2        1.0  0.5744718721609506  0.30278124886961133  0.6139743778697373  1.0000
  C   C3        1.0  0.5625863174135206  0.1747341871383179  0.6234387580815997  1.0000
  C   C4        1.0  0.4858792620725738  0.12528162001265541  0.6384060394732105  1.0000
  C   C5        1.0  0.4277196558195931  0.20796226810847673  0.6558466668448455  1.0000
  C   C6        1.0  0.3496729250079895  0.1629150546160023  0.6775957457913  1.0000
  C   C7        1.0  0.2883269560223906  0.24838357770440123  0.642105745782493  1.0000
  C   C8        1.0  0.2140537466191543  0.20908173151189557  0.6622666897565059  1.0000
  C   C9        1.0  0.15172902296691473  0.2970868443096839  0.6247015351036584  1.0000
  N   N2        1.0  0.10163335507570222  0.3678344282219108  0.5945027017940872  1.0000
  C   C10       1.0  0.2004949153660375  0.084191721603593  0.7189717240875628  1.0000
  C   C11       1.0  0.26094199363436354  0.9990410734496661  0.7558701264784389  1.0000
  C   C12       1.0  0.33511160560369724  0.03785327815014283  0.7358389314332106  1.0000
  O   O1        1.0  0.4410615762662091  0.3417591966223825  0.6545050324197053  1.0000
  C   C13       1.0  0.5087862213749715  0.3991343024273326  0.6058774602538686  1.0000
  H   H1        1.0  0.6095213018898151  0.10526700951236267  0.6213616485625189  1.0000
  H   H2        1.0  0.4782384634762722  0.021623012785149553  0.6364593417794977  1.0000
  H   H3        1.0  0.2982132652626827  0.3452080356820797  0.5976473486933249  1.0000
  H   H4        1.0  0.1432816349669004  0.05290410536447565  0.7351220882839875  1.0000
  H   H5        1.0  0.25031885185134584  0.9028756353289537  0.8007894154655453  1.0000
  H   H6        1.0  0.3806457023186168  0.9706237095999728  0.7682811498522406  1.0000
  H   H7        1.0  0.499326562809864  0.43504526247804476  0.5023426125896266  1.0000
  H   H8        1.0  0.5216514626404403  0.48353935014385674  0.6624285738772577  1.0000
  C   C14       1.0  0.9061578820154726  0.9958831251923088  0.5897747852398665  1.0000
  C   C15       1.0  0.9047493634137158  0.9841758489585652  0.7265445924736988  1.0000
  C   C16       1.0  0.9039695869381597  0.8611085279832025  0.795624468890705  1.0000
  C   C17       1.0  0.904603913679501  0.7489274579511062  0.72617758773957  1.0000
  C   C18       1.0  0.9060156677862105  0.7586791898126243  0.5894942564459038  1.0000
  C   C19       1.0  0.9067864773279113  0.8826179053036607  0.5220916737308496  1.0000
  C   C20       1.0  0.9024729662907586  0.8497056060085589  0.9402211351418535  1.0000
  C   C21       1.0  0.8560599313150258  0.7590830677414758  0.007082853809941225  1.0000
  C   C22       1.0  0.8546266108245002  0.7484355473294355  0.1431475490914076  1.0000
  C   C23       1.0  0.9000753845314292  0.8272297735283575  0.21482260973378042  1.0000
  C   C24       1.0  0.945766339081478  0.918840983484553  0.14858543818698478  1.0000
  C   C25       1.0  0.9472171771956881  0.9296634541538467  0.012520890814526009  1.0000
  C   C26       1.0  0.896948435807505  0.8182192381306895  0.36082473439695517  1.0000
  O   O2        1.0  0.8405389485399706  0.9041296748924866  0.3996577279036445  1.0000
  H   H9        1.0  0.9083262440694873  0.22529769145820389  0.3316031450568173  1.0000
  H   H10       1.0  0.903209331708688  0.07103350341921688  0.7795125326935073  1.0000
  H   H11       1.0  0.9050273554437306  0.6537941966450176  0.7790194104436781  1.0000
  H   H12       1.0  0.9078732701109617  0.8908560196658617  0.41666367719187347  1.0000
  H   H13       1.0  0.9065078844458233  0.43495703500113053  0.5369197875026119  1.0000
  H   H14       1.0  0.8199768429428581  0.6978090026281722  0.9540770387810245  1.0000
  H   H15       1.0  0.8179096601545419  0.6788898223969666  0.1926058343286693  1.0000
  H   H16       1.0  0.9804592619905655  0.9817353484140426  0.2023027787023357  1.0000
  H   H17       1.0  0.9839593039511256  0.9996535422861563  0.9638698420397602  1.0000
  H   H18       1.0  0.9524530773435047  0.8433729302550118  0.40237643281219004  1.0000
  H   H19       1.0  0.8846794372635791  0.7167978548158407  0.39832991590340927  1.0000
  H   H20       1.0  0.8408054290550742  0.8944571636049238  0.4962869428431379  1.0000
  C   C27       1.0  0.9061381774563745  0.37719381568673005  0.2082816672940655  1.0000
  C   C28       1.0  0.9607575681921564  0.47359090917030233  0.20094546902615096  1.0000
  C   C29       1.0  0.9883754404389901  0.5225341859139006  0.08008275382999464  1.0000
  C   C30       1.0  0.9606538899406839  0.4737681669556546  0.9656426465270949  1.0000
  C   C31       1.0  0.9060353961946822  0.37736851056797405  0.9709873147141854  1.0000
  C   C32       1.0  0.8790813120775214  0.32962467232809867  0.092768549163593  1.0000
  C   C33       1.0  0.046160610946783365  0.6245113351421081  0.07341332687930358  1.0000
  C   C34       1.0  0.04103966764736544  0.729344924496661  0.9774214148417695  1.0000
  C   C35       1.0  0.09545286672308184  0.8252394011159667  0.9712303150431327  1.0000
  C   C36       1.0  0.15560930743218027  0.8186283494009281  0.061405473922724996  1.0000
  C   C37       1.0  0.16145373919523398  0.7134809304495848  0.15635874697027274  1.0000
  C   C38       1.0  0.10705614823895604  0.6175609984465331  0.1627230154273196  1.0000
  C   C39       1.0  0.21518224633821936  0.9199750389347003  0.05239698431857254  1.0000
  N   N3        1.0  0.27303962347280164  0.8845239544320431  0.9609730033896895  1.0000
  H   H21       1.0  0.8853563103674307  0.3404136600973193  0.5385347026955525  1.0000
  H   H22       1.0  0.98120658428469  0.5121115415237254  0.28931067366881646  1.0000
  H   H23       1.0  0.9825237955205339  0.5098690624081039  0.872366741442252  1.0000
  H   H24       1.0  0.8369451908129351  0.25525764537710294  0.09765953465681476  1.0000
  H   H25       1.0  0.8852089228135398  0.34065951139591544  0.6455682034469157  1.0000
  H   H26       1.0  0.9944968142206357  0.7379414946418013  0.9079573694906458  1.0000
  H   H27       1.0  0.09057756843961018  0.9048815200719091  0.8962407054851704  1.0000
  H   H28       1.0  0.2082766952426509  0.7055231331856091  0.22530301234169303  1.0000
  H   H29       1.0  0.11324691135519682  0.5368380569484184  0.23627989353626777  1.0000
  H   H30       1.0  0.18908894862560666  0.016270385093987816  0.01843158813919299  1.0000
  H   H31       1.0  0.24120494126098335  0.9300284802572647  0.14989815158043895  1.0000
  H   H32       1.0  0.3111068214614141  0.9603816789181656  0.9519540629135963  1.0000
  H   H33       1.0  0.3033303904266331  0.8027500422448846  0.0025296060791830666  1.0000
  Zn  Zn1       1.0  0.8233960843308634  0.3812795546269554  0.5875754051866198  1.0000
  Zn  Zn2       1.0  0.9887702392379061  0.37328253288024005  0.591692836993083  1.0000
  C   C40       1.0  0.9060540841057411  0.3721614590529694  0.8268215066826841  1.0000
  C   C41       1.0  0.9061140450209472  0.3824021799224415  0.35244690731759754  1.0000
  C   C42       1.0  0.9060393618438405  0.6144935375354563  0.5843722136271836  1.0000
  C   C43       1.0  0.9061287111338022  0.14006854374241007  0.594896268777739  1.0000
  O   O3        1.0  0.9688645769441456  0.3811096602143782  0.40239262483161187  1.0000
  O   O4        1.0  0.9688187094925805  0.36738344439793114  0.7800004511689766  1.0000
  O   O5        1.0  0.9688059748815459  0.5630697037002432  0.5842209100968465  1.0000
  O   O6        1.0  0.9688772551355761  0.18542341290965414  0.5981720671247603  1.0000
  O   O7        1.0  0.8432890119991111  0.5691386773279443  0.581096173643034  1.0000
  O   O8        1.0  0.8433017463251089  0.37345397845357975  0.7768756448986147  1.0000
  O   O9        1.0  0.8433476140457576  0.3871801486498907  0.39926625724426423  1.0000
  O   O10       1.0  0.84336029222271  0.1914938920779814  0.5950457969044853  1.0000
