data_image0
_chemical_formula_structural       NC9NC3OCH8C12SCH12C13NH9Zn2C4O8
_chemical_formula_sum              "N3 C43 O9 H29 S1 Zn2"
_cell_length_a       17.728193572023454
_cell_length_b       10.299776766347529
_cell_length_c       10.298528502251457
_cell_angle_alpha    85.54283687761513
_cell_angle_beta     90.70114426090622
_cell_angle_gamma    88.43488659094774

_space_group_name_H-M_alt    "P 1"
_space_group_IT_number       1

loop_
  _space_group_symop_operation_xyz
  'x, y, z'

loop_
  _atom_site_type_symbol
  _atom_site_label
  _atom_site_symmetry_multiplicity
  _atom_site_fract_x
  _atom_site_fract_y
  _atom_site_fract_z
  _atom_site_occupancy
  N   N1        1.0  0.7103817836403568  0.38740424937068285  0.5850482782794126  1.0000
  C   C1        1.0  0.6497731988783175  0.3499719051070116  0.5980538974620506  1.0000
  C   C2        1.0  0.5743238390795921  0.30343849924149247  0.6142405589317323  1.0000
  C   C3        1.0  0.5624393054482103  0.17539774485857107  0.623657592439594  1.0000
  C   C4        1.0  0.4857338517263443  0.12594128616352873  0.6386084786758293  1.0000
  C   C5        1.0  0.4275760996523724  0.2086046876604324  0.6560836139560258  1.0000
  C   C6        1.0  0.3495316938526924  0.16354939000911717  0.6778191144368559  1.0000
  C   C7        1.0  0.2881819298961735  0.24903002110142847  0.6423558420394215  1.0000
  C   C8        1.0  0.21391087551870452  0.2097204585445238  0.6625051375198607  1.0000
  C   C9        1.0  0.151582135210151  0.2977386102810906  0.624967332948045  1.0000
  N   N2        1.0  0.1014832383069744  0.3684966762863411  0.5947904864388729  1.0000
  C   C10       1.0  0.2003581067681645  0.08481004549332671  0.7191719261856511  1.0000
  C   C11       1.0  0.2608091302887465  0.9996464727336835  0.756043957796283  1.0000
  C   C12       1.0  0.33497660112174776  0.038466365584940876  0.7360242458297708  1.0000
  O   O1        1.0  0.44091786536962174  0.3423902443501985  0.6547928807741596  1.0000
  C   C13       1.0  0.5086373158522172  0.3997873520919044  0.6061791058749111  1.0000
  H   H1        1.0  0.6093740742441872  0.10593802295128185  0.6215535915381367  1.0000
  H   H2        1.0  0.4780928543182681  0.02229315952201838  0.6366218464278017  1.0000
  H   H3        1.0  0.29806348605233823  0.3458705747598958  0.5979270130373788  1.0000
  H   H4        1.0  0.14314655268254034  0.053516230135406184  0.7353130339905112  1.0000
  H   H5        1.0  0.2501907907206986  0.9034646214198733  0.800934007538477  1.0000
  H   H6        1.0  0.3805141659655721  0.9712247413460117  0.768446196631908  1.0000
  H   H7        1.0  0.49916660465029616  0.43575297162016025  0.5026406778541592  1.0000
  H   H8        1.0  0.5215085851318731  0.48415312019703927  0.6627719223267754  1.0000
  C   C14       1.0  0.9060072927681088  0.9965817174142556  0.589919652603111  1.0000
  C   C15       1.0  0.9105382604146889  0.9847548553946595  0.7265627719014167  1.0000
  C   C16       1.0  0.9127614802779602  0.8616269800422645  0.7958044774295154  1.0000
  C   C17       1.0  0.9103939589930812  0.7494740500492637  0.7265743695492011  1.0000
  C   C18       1.0  0.9058650068733448  0.7593088673715593  0.5899305509851163  1.0000
  C   C19       1.0  0.903696601155874  0.883300086497034  0.5223680758554983  1.0000
  C   C20       1.0  0.9175464162743703  0.8501798026710475  0.9403572729178813  1.0000
  C   C21       1.0  0.8743538635952681  0.758782516021145  0.013332923107758021  1.0000
  C   C22       1.0  0.8788797130708015  0.7482427437657213  0.14937125341002877  1.0000
  C   C23       1.0  0.9264099078883096  0.8288301791634705  0.21423613415528353  1.0000
  C   C24       1.0  0.9697825123818677  0.9196445113780762  0.14263819837756198  1.0000
  C   C25       1.0  0.9653673209449124  0.9305288262152621  0.006592208280184142  1.0000
  S   S1        1.0  0.9323004146268277  0.8148416404400974  0.3887941012142302  1.0000
  C   C26       1.0  0.8564666893242646  0.9345630100087767  0.40643616241577163  1.0000
  H   H9        1.0  0.9043104778201817  0.3285403353538223  0.5378531609603097  1.0000
  H   H10       1.0  0.9113081325067701  0.07153085248240632  0.7795466270738203  1.0000
  H   H11       1.0  0.9131315298551351  0.6543101784610261  0.7794110795904194  1.0000
  H   H12       1.0  0.9002016682413271  0.8916554944406228  0.41695373221355103  1.0000
  H   H13       1.0  0.9041015941109444  0.4356044292137187  0.5378670667351813  1.0000
  H   H14       1.0  0.836366049579245  0.6966708272325748  0.9652668844275059  1.0000
  H   H15       1.0  0.8451381670186295  0.6777928892896752  0.2042589367891442  1.0000
  H   H16       1.0  0.0069671046968233785  0.9818503713176914  0.1922733539975433  1.0000
  H   H17       1.0  6.129279303079826e-05  0.0005632091146632323  0.953141461570072  1.0000
  H   H18       1.0  0.8715752836281101  0.03017877857898643  0.35792899755070595  1.0000
  H   H19       1.0  0.847719206975738  0.9456298012839527  0.5115101590479404  1.0000
  H   H20       1.0  0.8033652152118659  0.9016118652793806  0.3629862856299938  1.0000
  C   C27       1.0  0.9059468412562919  0.3780712517441216  0.2085084843879097  1.0000
  C   C28       1.0  0.8274882860573568  0.40172601582525336  0.20406438763344603  1.0000
  C   C29       1.0  0.7877405148270633  0.41357146750599694  0.08466622926571699  1.0000
  C   C30       1.0  0.8274658080006142  0.40146224597571045  0.9688041190871011  1.0000
  C   C31       1.0  0.9059254350263564  0.37781930959416044  0.9713416658226142  1.0000
  C   C32       1.0  0.9446635505916059  0.36627244722454866  0.09164816951836108  1.0000
  C   C33       1.0  0.704794042356004  0.43857358792286494  0.08097559679289756  1.0000
  C   C34       1.0  0.6714581925332721  0.5281152874424437  0.1610629230428624  1.0000
  C   C35       1.0  0.5933807718590633  0.5516027375110832  0.1574694536624952  1.0000
  C   C36       1.0  0.5476002782857528  0.48595815276684595  0.07397873996619464  1.0000
  C   C37       1.0  0.5801912578916645  0.3966887953461371  0.9939768709752088  1.0000
  C   C38       1.0  0.6582606406546715  0.37310737025935836  0.9973335281162443  1.0000
  C   C39       1.0  0.46721948266940433  0.5101892017309271  0.07039992449077737  1.0000
  N   N3        1.0  0.402598743166646  0.5296694541475104  0.0675228332017146  1.0000
  H   H21       1.0  0.05414037835696939  0.332567700389633  0.4242918494428889  1.0000
  H   H22       1.0  0.7970098078471075  0.4092072392063144  0.29382091538729616  1.0000
  H   H23       1.0  0.7972705733464917  0.412269129750072  0.8763481779663587  1.0000
  H   H24       1.0  0.005133074798946424  0.3480459760889749  0.09433844178925144  1.0000
  H   H25       1.0  0.054258109645963115  0.3339517964821428  0.7687505874167013  1.0000
  H   H26       1.0  0.7058708239171866  0.5812193176205971  0.22522418866791427  1.0000
  H   H27       1.0  0.568766058082206  0.6211822903708082  0.21956464599861736  1.0000
  H   H28       1.0  0.5452567634548572  0.34506014005373586  0.929230904628978  1.0000
  H   H29       1.0  0.6821346114638691  0.3024334525763468  0.9357666428027338  1.0000
  Zn  Zn1       1.0  0.8232452271007717  0.38194445937652977  0.5878671697144024  1.0000
  Zn  Zn2       1.0  0.9886198221221408  0.3739458590565419  0.5919822338510554  1.0000
  C   C40       1.0  0.9059287606970734  0.3726933656087119  0.8271497690330274  1.0000
  C   C41       1.0  0.9059380941019612  0.3831985040558994  0.3526998069745588  1.0000
  C   C42       1.0  0.9058881426342419  0.6151391043476178  0.5847525567810086  1.0000
  C   C43       1.0  0.9059786560231821  0.14075120772231764  0.5950970870474344  1.0000
  O   O2        1.0  0.968693956487847  0.38187816389707496  0.4026533773518737  1.0000
  O   O3        1.0  0.9686883896180427  0.3679419736015306  0.7803190632125747  1.0000
  O   O4        1.0  0.968654743962118  0.5637200142510632  0.5845815782858002  1.0000
  O   O5        1.0  0.9687275457136243  0.1861001352992966  0.5983907634877432  1.0000
  O   O6        1.0  0.8431374470750551  0.569790185864721  0.5814586386666136  1.0000
  O   O7        1.0  0.8431710924383572  0.37401370554081015  0.7771960543614302  1.0000
  O   O8        1.0  0.8431766594106208  0.38794985109368696  0.3995288069053893  1.0000
  O   O9        1.0  0.8432102486323122  0.19217181317510046  0.595266290421063  1.0000
