data_image0
_chemical_formula_structural       NC9NC3OCH8C12ClH9C13NH9Zn2C4O8
_chemical_formula_sum              "N3 C42 O9 H26 Cl1 Zn2"
_cell_length_a       17.728193572023454
_cell_length_b       10.299768534541528
_cell_length_c       10.298528502251457
_cell_angle_alpha    85.54291766685282
_cell_angle_beta     90.70114426090622
_cell_angle_gamma    88.47167022583639

_space_group_name_H-M_alt    "P 1"
_space_group_IT_number       1

loop_
  _space_group_symop_operation_xyz
  'x, y, z'

loop_
  _atom_site_type_symbol
  _atom_site_label
  _atom_site_symmetry_multiplicity
  _atom_site_fract_x
  _atom_site_fract_y
  _atom_site_fract_z
  _atom_site_occupancy
  N   N1        1.0  0.7108995767255158  0.3873801505000096  0.5850630954341318  1.0000
  C   C1        1.0  0.6502770218397512  0.3499484564269544  0.5980683148480381  1.0000
  C   C2        1.0  0.574810295310459  0.3034158588352531  0.6142544793517675  1.0000
  C   C3        1.0  0.5628779755941864  0.17537732848875232  0.6236701454141507  1.0000
  C   C4        1.0  0.48615406422932245  0.12592172884023722  0.638620503466909  1.0000
  C   C5        1.0  0.4280271629601612  0.20858369449418213  0.6560965215730086  1.0000
  C   C6        1.0  0.3499659420746228  0.16352917944230905  0.6778315408737381  1.0000
  C   C7        1.0  0.28864808034106076  0.24900832575707654  0.6423691813895642  1.0000
  C   C8        1.0  0.214362355243301  0.20969944599760804  0.6625180570530174  1.0000
  C   C9        1.0  0.1520664641856839  0.2977160688805214  0.6249811924945918  1.0000
  N   N2        1.0  0.1019939748975289  0.36847290583556314  0.5948051016651084  1.0000
  C   C10       1.0  0.20076296868243523  0.08479120260957251  0.7191835117046466  1.0000
  C   C11       1.0  0.2611822083093883  0.9996291091202476  0.7560546337881273  1.0000
  C   C12       1.0  0.3353641671130686  0.03844832767951156  0.7360353364090426  1.0000
  O   O1        1.0  0.4414188587797436  0.34236692736172425  0.6548072171897741  1.0000
  C   C13       1.0  0.5091597304346542  0.39976303812978187  0.6061940552782872  1.0000
  H   H1        1.0  0.6097868213300913  0.10591881307975393  0.6215654026990174  1.0000
  H   H2        1.0  0.47847438430799255  0.022275402541201528  0.6366327642809937  1.0000
  H   H3        1.0  0.2985657783564348  0.3458471973189383  0.5979413866221124  1.0000
  H   H4        1.0  0.14353973543321621  0.05349793081752985  0.7353242852988358  1.0000
  H   H5        1.0  0.250527972716407  0.9034489284615451  0.8009436563305177  1.0000
  H   H6        1.0  0.38087663671296423  0.9712078714110617  0.7684565690862712  1.0000
  H   H7        1.0  0.499702441960178  0.4357280329440696  0.5026560113619876  1.0000
  H   H8        1.0  0.5220624858592956  0.4841273408222688  0.6627877727369345  1.0000
  C   C14       1.0  0.9063792269915388  0.9965644070348659  0.5899302958640811  1.0000
  C   C15       1.0  0.9113533449570492  0.005936089870829386  0.4535684334579282  1.0000
  C   C16       1.0  0.9139463186352639  0.8935419190497847  0.3844819902201815  1.0000
  C   C17       1.0  0.9114974746400728  0.7706413992801169  0.453587515537762  1.0000
  C   C18       1.0  0.9065215813921504  0.759278273252752  0.5899492716649786  1.0000
  C   C19       1.0  0.9039908785922807  0.8727957775102634  0.6573570489185272  1.0000
  C   C20       1.0  0.9192095241614804  0.9045099975292157  0.2402225324687417  1.0000
  C   C21       1.0  0.8762800333201123  0.00015082557405032837  0.16468018441813026  1.0000
  C   C22       1.0  0.8813011500058111  0.010275245413227108  0.02890874373026775  1.0000
  C   C23       1.0  0.929178930407794  0.9252850687017782  0.9669857704106124  1.0000
  C   C24       1.0  0.972096097672925  0.8299575952984254  0.04101640449279609  1.0000
  C   C25       1.0  0.9672089936402868  0.8194344404693776  0.1768058284524776  1.0000
  Cl  Cl1       1.0  0.9353945833318836  0.9382377679369283  0.7966345654360043  1.0000
  H   H9        1.0  0.9044451228718964  0.3204489578613938  0.6418866600014193  1.0000
  H   H10       1.0  0.9142643050416608  0.10082568039943451  0.40090184790056727  1.0000
  H   H11       1.0  0.9124390584651856  0.6837801153700963  0.4006582919749757  1.0000
  H   H12       1.0  0.9001528112864241  0.8647978038390216  0.762553929605498  1.0000
  H   H13       1.0  0.9046555798028503  0.4274931902005349  0.6419151341536189  1.0000
  H   H14       1.0  0.8381230861386721  0.06595550933113459  0.210478944622573  1.0000
  H   H15       1.0  0.8477971308282387  0.08402799743688205  0.9719554888248938  1.0000
  H   H16       1.0  0.009411493118415049  0.7641475559014991  0.9935069951322788  1.0000
  H   H17       1.0  0.0016706588523049959  0.7459292093431605  0.2322884483944878  1.0000
  C   C26       1.0  0.906461151173775  0.3780473149853223  0.2085232018683849  1.0000
  C   C27       1.0  0.8280114241684092  0.40170166818901865  0.20407935774130048  1.0000
  C   C28       1.0  0.78826807377867  0.4135469141171786  0.08468132588024013  1.0000
  C   C29       1.0  0.8279888476701314  0.4014379029210928  0.9688190863779544  1.0000
  C   C30       1.0  0.9064396509165196  0.37779537721153433  0.9713563806124066  1.0000
  C   C31       1.0  0.9451734570777199  0.3662487154080827  0.09166276099034776  1.0000
  C   C32       1.0  0.705330932347985  0.4385486002533625  0.08099096042425225  1.0000
  C   C33       1.0  0.6720285003793975  0.5280887444556375  0.16107924295874354  1.0000
  C   C34       1.0  0.593959845455502  0.5515757865530446  0.15748602441888115  1.0000
  C   C35       1.0  0.5481548526693093  0.4859323420391033  0.0739946096536821  1.0000
  C   C36       1.0  0.5807125160618608  0.39666453520518297  0.9939917872867197  1.0000
  C   C37       1.0  0.6587730980021416  0.37308351972195997  0.997348192583619  1.0000
  C   C38       1.0  0.4677831003217885  0.5101629701158221  0.07041605296023157  1.0000
  N   N3        1.0  0.403169631043266  0.5296428841652108  0.06753916971573459  1.0000
  H   H18       1.0  0.054637705895847155  0.3325445540163321  0.4243060809560182  1.0000
  H   H19       1.0  0.7975357380252427  0.40918276162306855  0.29383596539287615  1.0000
  H   H20       1.0  0.797797646252676  0.41224459898254007  0.876363260672218  1.0000
  H   H21       1.0  0.005636178984486984  0.34802256086183103  0.09435283860676558  1.0000
  H   H22       1.0  0.05475595374328912  0.33392862606743323  0.7687648337116553  1.0000
  H   H23       1.0  0.7064609507163192  0.581191852229844  0.22524107572248697  1.0000
  H   H24       1.0  0.5693710994608218  0.6211541308330448  0.21958195984844497  1.0000
  H   H25       1.0  0.545758753296649  0.3450367766898297  0.9292452695584577  1.0000
  H   H26       1.0  0.6826206926013098  0.3024108296275205  0.935780552489105  1.0000
  Zn  Zn1       1.0  0.8237609825379226  0.3819204553410662  0.5878819285598342  1.0000
  Zn  Zn2       1.0  0.9891325924019817  0.3739219939547993  0.5919969072732962  1.0000
  C   C39       1.0  0.9064410635338842  0.37266952226247274  0.8271644290789291  1.0000
  C   C40       1.0  0.9064543175610774  0.383174478237988  0.3527145792128965  1.0000
  C   C41       1.0  0.9064909286356404  0.6151110497785095  0.5847698060910154  1.0000
  C   C42       1.0  0.9064043957364009  0.14073139315433036  0.5951092700050322  1.0000
  O   O2        1.0  0.9692096871828646  0.3818541610131476  0.4026681354892847  1.0000
  O   O3        1.0  0.96919891918803  0.36791821278580206  0.780333672514715  1.0000
  O   O4        1.0  0.9692383398469308  0.5636928528189071  0.5845982784518828  1.0000
  O   O5        1.0  0.9691702100983144  0.1860795330315872  0.5984034307613411  1.0000
  O   O6        1.0  0.843723308408376  0.5697629189951763  0.5814754036607175  1.0000
  O   O7        1.0  0.8436838880391819  0.3739898392605905  0.7772107285082555  1.0000
  O   O8        1.0  0.8436946561197773  0.3879257427460463  0.39954362988700765  1.0000
  O   O9        1.0  0.843655179027663  0.19215110544383962  0.5952790225387683  1.0000
