data_image0
_chemical_formula_structural       NC9NC3OCH8C13OH12C16H10Zn2C4O8
_chemical_formula_sum              "N2 C46 O10 H30 Zn2"
_cell_length_a       17.728193572023454
_cell_length_b       10.299150109392551
_cell_length_c       10.299151387937775
_cell_angle_alpha    85.56522917257966
_cell_angle_beta     90.6938546660218
_cell_angle_gamma    88.43520969070386

_space_group_name_H-M_alt    "P 1"
_space_group_IT_number       1

loop_
  _space_group_symop_operation_xyz
  'x, y, z'

loop_
  _atom_site_type_symbol
  _atom_site_label
  _atom_site_symmetry_multiplicity
  _atom_site_fract_x
  _atom_site_fract_y
  _atom_site_fract_z
  _atom_site_occupancy
  N   N1        1.0  0.7105046076868526  0.3864283402348596  0.5846918703266377  1.0000
  C   C1        1.0  0.6498948910321652  0.34900273718720576  0.5977101956569952  1.0000
  C   C2        1.0  0.5744441224978625  0.3024777262935372  0.6139126502409606  1.0000
  C   C3        1.0  0.5625587572370899  0.17443273714518726  0.6233774519556716  1.0000
  C   C4        1.0  0.4858520015565601  0.12498344767019143  0.6383453999257171  1.0000
  C   C5        1.0  0.427692744482935  0.20766791504905058  0.6557868040279944  1.0000
  C   C6        1.0  0.3496464491103331  0.16262546433755465  0.677536851585022  1.0000
  C   C7        1.0  0.2882997695783147  0.24808621555214683  0.6420452710040299  1.0000
  C   C8        1.0  0.2140269638179793  0.2087887843585805  0.6622071128599041  1.0000
  C   C9        1.0  0.1517014880725829  0.29678567084920027  0.6246402852163957  1.0000
  N   N2        1.0  0.10160521556956771  0.3675266415880962  0.5944401069804812  1.0000
  C   C10       1.0  0.2004692678581593  0.08391119215585419  0.7189146725896645  1.0000
  C   C11       1.0  0.26091708487057375  0.9987686242985447  0.7558147182769188  1.0000
  C   C12       1.0  0.33508629579471405  0.03757644241350366  0.7357826311282889  1.0000
  O   O1        1.0  0.4410346380686456  0.3414645497615063  0.654445109852219  1.0000
  C   C13       1.0  0.5087583096032383  0.3988290067258178  0.605815372023154  1.0000
  H   H1        1.0  0.6094937001275085  0.1049651046577762  0.6213002499310534  1.0000
  H   H2        1.0  0.4782111639853621  0.021324414139817005  0.6363986155344494  1.0000
  H   H3        1.0  0.2981851887156238  0.34490093768728625  0.5975848939287867  1.0000
  H   H4        1.0  0.1432563108059778  0.05262711264799713  0.7350657560539509  1.0000
  H   H5        1.0  0.2502948424180704  0.902613022950033  0.800736007776246  1.0000
  H   H6        1.0  0.380621042036321  0.9703539783104308  0.7682262943844016  1.0000
  H   H7        1.0  0.4992965781636507  0.4347172939174029  0.5022759133614387  1.0000
  H   H8        1.0  0.5216246830803521  0.4832464384411743  0.6623690041902794  1.0000
  C   C14       1.0  0.9061296478515702  0.9955743032028783  0.5897119798651616  1.0000
  C   C15       1.0  0.9047238675224768  0.9838969778759272  0.7264878782388358  1.0000
  C   C16       1.0  0.9039454740973247  0.8608447845444621  0.7955708311768666  1.0000
  C   C17       1.0  0.9045784104404485  0.7486485064989421  0.7261208571598918  1.0000
  C   C18       1.0  0.9059874280058322  0.7583703063908358  0.5894314385776513  1.0000
  C   C19       1.0  0.9067568880782797  0.8822942615446798  0.5220258540410303  1.0000
  C   C20       1.0  0.9024517484243799  0.8494735274625388  0.940173937142545  1.0000
  C   C21       1.0  0.8560400520892445  0.7588656310900697  0.007038633544437012  1.0000
  C   C22       1.0  0.8546094557543129  0.7482479071739707  0.14310938856308708  1.0000
  C   C23       1.0  0.900059664469912  0.8270578293302394  0.21478764130484485  1.0000
  C   C24       1.0  0.9457492928834412  0.9186545341599648  0.14854751983889114  1.0000
  C   C25       1.0  0.9471974068450185  0.929447208365707  0.012476912735835843  1.0000
  C   C26       1.0  0.8969356388591719  0.8180792666034099  0.3607962682756307  1.0000
  O   O2        1.0  0.8405269290682365  0.9039982073135016  0.39963099123707846  1.0000
  H   H9        1.0  0.9082928410429609  0.2249323330526738  0.33152884182600384  1.0000
  H   H10       1.0  0.9031848962902654  0.07076623166447593  0.7794581774232254  1.0000
  H   H11       1.0  0.9050029101524921  0.6535268169025648  0.7789650332118494  1.0000
  H   H12       1.0  0.9078415700840565  0.8905092884714187  0.4165931621918604  1.0000
  H   H13       1.0  0.9064785920703293  0.4346366384168184  0.5368546281932991  1.0000
  H   H14       1.0  0.8199559024859673  0.6975799583547512  0.9540304578641581  1.0000
  H   H15       1.0  0.8178934952902572  0.6787130129980936  0.1925698764599696  1.0000
  H   H16       1.0  0.9804432912691128  0.9815606625268053  0.2022672526938939  1.0000
  H   H17       1.0  0.9839385595562603  0.9994266425162889  0.9638236972522949  1.0000
  H   H18       1.0  0.9524411123030478  0.8432420580389871  0.4023498172250647  1.0000
  H   H19       1.0  0.8846673912076786  0.7166660964623474  0.398303120101799  1.0000
  H   H20       1.0  0.8407953441999273  0.8943468566363735  0.49626450962682056  1.0000
  C   C27       1.0  0.9061023054066178  0.3768014513932725  0.20820187185424954  1.0000
  C   C28       1.0  0.8332791660767408  0.43427827724957746  0.2014586822998392  1.0000
  C   C29       1.0  0.7963112867631695  0.4635963475043601  0.08088260482952614  1.0000
  C   C30       1.0  0.8331478159569546  0.4346622494628658  0.9661429370209498  1.0000
  C   C31       1.0  0.9060147590892365  0.3771431590591714  0.9709415438135967  1.0000
  C   C32       1.0  0.9420441576513341  0.348568770056386  0.092386321732145  1.0000
  C   C33       1.0  0.719273224847559  0.5244001793220219  0.07479453440125083  1.0000
  C   C34       1.0  0.7000864495970576  0.6251476979302748  0.9789752705779553  1.0000
  C   C35       1.0  0.6275657954203525  0.6823376498247498  0.9733731549705609  1.0000
  C   C36       1.0  0.573280553715214  0.6396345777480326  0.06326455504972817  1.0000
  C   C37       1.0  0.5917832651902919  0.5394785026769431  0.15890447285624765  1.0000
  C   C38       1.0  0.664282285136979  0.4822019965775324  0.16475564599215842  1.0000
  C   C39       1.0  0.49863093020408095  0.698557275407746  0.05736941704433751  1.0000
  C   C40       1.0  0.4361129238782098  0.7479041476309778  0.05243223705353062  1.0000
  C   C41       1.0  0.362904988552644  0.8056888887136429  0.046650849143883066  1.0000
  C   C42       1.0  0.3003970852150273  0.8550280241366732  0.0417145734403952  1.0000
  H   H21       1.0  0.934097168685521  0.35463160733721244  0.5382756584663635  1.0000
  H   H22       1.0  0.8055466195891755  0.45801472840460966  0.29006316588011116  1.0000
  H   H23       1.0  0.8045089652554327  0.45542689081494525  0.8730491772880438  1.0000
  H   H24       1.0  0.9982136040091444  0.3042319071188715  0.0968720214218004  1.0000
  H   H25       1.0  0.04335783717462105  0.2678296503190636  0.772760094682095  1.0000
  H   H26       1.0  0.741450870349264  0.6608535683044392  0.9094461803188945  1.0000
  H   H27       1.0  0.6139037447696493  0.7600532416090726  0.8991522090048769  1.0000
  H   H28       1.0  0.5501258165383283  0.5054281211215226  0.22875707158245406  1.0000
  H   H29       1.0  0.677052653545191  0.40376780234649856  0.2385616260046559  1.0000
  H   H30       1.0  0.24550998518698391  0.8983517962867842  0.03738012321506479  1.0000
  Zn  Zn1       1.0  0.8233678061331031  0.3809702510003248  0.587512501860973  1.0000
  Zn  Zn2       1.0  0.9887420434753789  0.3729741309205694  0.5916301170401659  1.0000
  C   C43       1.0  0.9060305958617924  0.371904547382073  0.8267692583509301  1.0000
  C   C44       1.0  0.9060810593080486  0.38204138604466253  0.3523735323784394  1.0000
  C   C45       1.0  0.9060110195148802  0.6141835324492435  0.5843091676451408  1.0000
  C   C46       1.0  0.9061005795072848  0.139760843294928  0.5948336914919161  1.0000
  O   O3        1.0  0.9688325911960469  0.38075980383486874  0.4023214742602146  1.0000
  O   O4        1.0  0.9687942838427893  0.3671162794913392  0.7799461176284883  1.0000
  O   O5        1.0  0.9687776295233327  0.5627596654804172  0.5841578573763948  1.0000
  O   O6        1.0  0.9688491890939215  0.18511642982174825  0.5981096357289273  1.0000
  O   O7        1.0  0.8432606040804499  0.5688279548292403  0.5810329817602398  1.0000
  O   O8        1.0  0.8432772581134719  0.37318612925282046  0.7768211721926748  1.0000
  O   O9        1.0  0.8433155657045539  0.38682960763430474  0.3991949674378812  1.0000
  O   O10       1.0  0.8433321635899003  0.1911862243753213  0.5949832262780033  1.0000
