data_image0
_chemical_formula_structural       NC9NC3OCH8C12SCH12C13NH13Zn2C4O8
_chemical_formula_sum              "N3 C43 O9 H33 S1 Zn2"
_cell_length_a       17.728193572023454
_cell_length_b       10.299776766347529
_cell_length_c       10.299780419254978
_cell_angle_alpha    85.57449051580876
_cell_angle_beta     90.69152596638011
_cell_angle_gamma    88.43488659094774

_space_group_name_H-M_alt    "P 1"
_space_group_IT_number       1

loop_
  _space_group_symop_operation_xyz
  'x, y, z'

loop_
  _atom_site_type_symbol
  _atom_site_label
  _atom_site_symmetry_multiplicity
  _atom_site_fract_x
  _atom_site_fract_y
  _atom_site_fract_z
  _atom_site_occupancy
  N   N1        1.0  0.7105327661408423  0.38661291651018526  0.5852847004774315  1.0000
  C   C1        1.0  0.6499227936135001  0.34918784583307705  0.5982881465703263  1.0000
  C   C2        1.0  0.5744717066161815  0.3026634925994782  0.6144721034345966  1.0000
  C   C3        1.0  0.5625861681397267  0.1746280048330422  0.6238875634642069  1.0000
  C   C4        1.0  0.48587911908273107  0.12517990764418485  0.6388359515788937  1.0000
  C   C5        1.0  0.4277195023234978  0.20785308237121103  0.6563081669644888  1.0000
  C   C6        1.0  0.34967277723605594  0.16280994062281873  0.6780400356925744  1.0000
  C   C7        1.0  0.28832679738994854  0.2482707383509537  0.642582688801064  1.0000
  C   C8        1.0  0.2140535929808086  0.20897244458816044  0.6627286175654146  1.0000
  C   C9        1.0  0.1517288581457353  0.29696960274748196  0.6251970851300466  1.0000
  N   N2        1.0  0.10163318126460791  0.36771079190110356  0.5950252808256871  1.0000
  C   C10       1.0  0.2004947775974994  0.08409372328395492  0.7193859378609948  1.0000
  C   C11       1.0  0.2609418666859414  0.9989507717580957  0.7562518085782017  1.0000
  C   C12       1.0  0.3351114737233977  0.03775946828675569  0.7362354416758599  1.0000
  O   O1        1.0  0.4410614057685017  0.34163791719918835  0.6550176494493278  1.0000
  C   C13       1.0  0.5087860435865937  0.39900783696199693  0.6064119973540869  1.0000
  H   H1        1.0  0.6095211614432342  0.10516710623185888  0.6217839141171599  1.0000
  H   H2        1.0  0.47823833365835716  0.021530669948950587  0.6368496512743207  1.0000
  H   H3        1.0  0.2982130943267303  0.34508644452395343  0.5981612833465859  1.0000
  H   H4        1.0  0.14328150117408833  0.05280893508138851  0.735524348671938  1.0000
  H   H5        1.0  0.2503187371226923  0.9027940258743331  0.8011343577081367  1.0000
  H   H6        1.0  0.38064557898119694  0.9705359765075259  0.7686519751420164  1.0000
  H   H7        1.0  0.49932638045827066  0.43491555107965874  0.502890869416692  1.0000
  H   H8        1.0  0.5216512741266898  0.4834052554440593  0.6629953577956491  1.0000
  C   C14       1.0  0.9061577554683319  0.9957931089425259  0.5901552608503731  1.0000
  C   C15       1.0  0.9106741426034293  0.9840426666260206  0.7267755486512408  1.0000
  C   C16       1.0  0.9128899740267434  0.8609535157304817  0.7960056846848023  1.0000
  C   C17       1.0  0.9105298399442942  0.7487618677667823  0.7267871443611917  1.0000
  C   C18       1.0  0.9060154684106555  0.7585202649949124  0.5901661574113835  1.0000
  C   C19       1.0  0.9038542719507708  0.8824736987981842  0.5226149711961705  1.0000
  C   C20       1.0  0.9176594855092424  0.8495871816667718  0.9405343270595921  1.0000
  C   C21       1.0  0.8744591459594144  0.7582307077379856  0.013497783855620504  1.0000
  C   C22       1.0  0.8789704794575082  0.7477670169483835  0.14951338371375555  1.0000
  C   C23       1.0  0.9264937528643857  0.8283907289984299  0.21436742628167593  1.0000
  C   C24       1.0  0.969873997219578  0.919165018999259  0.14278145369753203  1.0000
  C   C25       1.0  0.9654733225774015  0.9299732480867686  0.006758195324153227  1.0000
  S   S1        1.0  0.9323656333855268  0.8144998144224216  0.3888962267071461  1.0000
  C   C26       1.0  0.8565300255858632  0.9342310505770355  0.4065353401226801  1.0000
  H   H9        1.0  0.9044664962782298  0.32772260791984453  0.5380974689209319  1.0000
  H   H10       1.0  0.9114383610503604  0.07084829572525608  0.7797505508293647  1.0000
  H   H11       1.0  0.9132617728623272  0.6536275458969234  0.7796150259943928  1.0000
  H   H12       1.0  0.9003705872795003  0.8907701521973803  0.41721824108155725  1.0000
  H   H13       1.0  0.9042576110851758  0.434786709556753  0.5381113723723081  1.0000
  H   H14       1.0  0.8364764608326651  0.6960921373001706  0.965439776458938  1.0000
  H   H15       1.0  0.8452230766120935  0.6773478592281543  0.20439189599074115  1.0000
  H   H16       1.0  0.007053293212551548  0.9813986381401778  0.19240831585250617  1.0000
  H   H17       1.0  0.00017299789035685187  0.999977737858623  0.953316379620541  1.0000
  H   H18       1.0  0.871643795849376  0.029819690791600406  0.35803628024830836  1.0000
  H   H19       1.0  0.8477713313108063  0.9453566060524613  0.5115917800955951  1.0000
  H   H20       1.0  0.803433187794932  0.9012556058558041  0.36309272331278397  1.0000
  C   C27       1.0  0.9061380024559804  0.3770693333861701  0.20880782206519677  1.0000
  C   C28       1.0  0.9607573809425571  0.4734577136938425  0.20150845215802682  1.0000
  C   C29       1.0  0.9883752469701551  0.522396566534562  0.08066443566519066  1.0000
  C   C30       1.0  0.9606537026685606  0.4736349554571533  0.9662056973800341  1.0000
  C   C31       1.0  0.9060352211720893  0.3772440124770291  0.9715135362272274  1.0000
  C   C32       1.0  0.8790811431217511  0.3295044897247441  0.09327653021694293  1.0000
  C   C33       1.0  0.046160404519684395  0.6243644982147407  0.07403396892692737  1.0000
  C   C34       1.0  0.041039447899033465  0.7291886118323068  0.9780821084003604  1.0000
  C   C35       1.0  0.09545263478941246  0.8250744207064298  0.9719276449384711  1.0000
  C   C36       1.0  0.15560907633857912  0.818463966553562  0.0621002780759623  1.0000
  C   C37       1.0  0.16145352146274394  0.7133260517057514  0.15701337971442952  1.0000
  C   C38       1.0  0.10705594269503815  0.6174147897487525  0.16334100210953895  1.0000
  C   C39       1.0  0.215182002366467  0.9198014955255285  0.05313050781808415  1.0000
  N   N3        1.0  0.27303938400582783  0.8843536153885212  0.9616929828570986  1.0000
  H   H21       1.0  0.8853561400407008  0.3402925022949752  0.539046805665023  1.0000
  H   H22       1.0  0.9812063921402633  0.5119748642301971  0.289888373548814  1.0000
  H   H23       1.0  0.98252360366106  0.5097325878086016  0.8729435845865652  1.0000
  H   H24       1.0  0.8369450313070034  0.25514418468790145  0.09813910390232783  1.0000
  H   H25       1.0  0.8852087524555697  0.3405383313714738  0.6460804003434948  1.0000
  H   H26       1.0  0.9944965933799353  0.7377844049475057  0.9086213473555893  1.0000
  H   H27       1.0  0.09057732638579519  0.9047093409412659  0.8969684625291032  1.0000
  H   H28       1.0  0.20827647852136044  0.7053689737340789  0.22595460482169072  1.0000
  H   H29       1.0  0.11324671606876535  0.53669914466553  0.23686704014330973  1.0000
  H   H30       1.0  0.1890886924175783  0.016088137705691175  0.019201901127041454  1.0000
  H   H31       1.0  0.2412046960117371  0.9298540281339451  0.15063551598168745  1.0000
  H   H32       1.0  0.3111065723551789  0.960204483218775  0.9527030237075333  1.0000
  H   H33       1.0  0.3033301613506929  0.8025870946117795  0.0032183439496848987  1.0000
  Zn  Zn1       1.0  0.8233959088112932  0.38115470302312304  0.5881031209080054  1.0000
  Zn  Zn2       1.0  0.9887700647345194  0.37315840411414736  0.5922174974646566  1.0000
  C   C40       1.0  0.9060539097448097  0.372037431618909  0.8273457388497325  1.0000
  C   C41       1.0  0.9061138693587245  0.3822772268463417  0.3529750519362447  1.0000
  C   C42       1.0  0.9060391566897059  0.6143476061004598  0.5849890283906969  1.0000
  C   C43       1.0  0.9061285662649811  0.13996549480804488  0.595331830204805  1.0000
  O   O2        1.0  0.9688644014461639  0.3809848239670244  0.4029202756450998  1.0000
  O   O3        1.0  0.9688185357387928  0.367259848840815  0.7805228579029029  1.0000
  O   O4        1.0  0.9688057762618518  0.5629284203816316  0.5848180784640333  1.0000
  O   O5        1.0  0.9688771045034993  0.18531626442271243  0.5986249563095711  1.0000
  O   O6        1.0  0.8432888126082309  0.568996845444715  0.5816956606522257  1.0000
  O   O7        1.0  0.8433015717999368  0.37332983419080157  0.7774003708707049  1.0000
  O   O8        1.0  0.8433474377763973  0.38705476370099823  0.3997962272784865  1.0000
  O   O9        1.0  0.843360140819256  0.1913861948903386  0.5955010053064913  1.0000
