data_image0
_chemical_formula_structural       NC9NC3OCH8C12OCH12C12NH11Zn2C4O8
_chemical_formula_sum              "N3 C42 O10 H31 Zn2"
_cell_length_a       17.728193572023454
_cell_length_b       10.29979075500242
_cell_length_c       10.299774167527174
_cell_angle_alpha    85.5728606880388
_cell_angle_beta     90.69829352168313
_cell_angle_gamma    88.43583692371088

_space_group_name_H-M_alt    "P 1"
_space_group_IT_number       1

loop_
  _space_group_symop_operation_xyz
  'x, y, z'

loop_
  _atom_site_type_symbol
  _atom_site_label
  _atom_site_symmetry_multiplicity
  _atom_site_fract_x
  _atom_site_fract_y
  _atom_site_fract_z
  _atom_site_occupancy
  N   N1        1.0  0.7104495496745046  0.3865164396342855  0.5851428786519957  1.0000
  C   C1        1.0  0.6498401258803254  0.3490920974314158  0.5981502466824595  1.0000
  C   C2        1.0  0.5743897223081393  0.30256865119907883  0.614339078967294  1.0000
  C   C3        1.0  0.5625036971105428  0.17453304348395338  0.6237680874978331  1.0000
  C   C4        1.0  0.48579722258608676  0.12508574251567328  0.6387216658412251  1.0000
  C   C5        1.0  0.4276395076505353  0.2077607488796993  0.6561850448498656  1.0000
  C   C6        1.0  0.3495938529263635  0.1627189368523716  0.6779216111131445  1.0000
  C   C7        1.0  0.288246231524407  0.24817764180155377  0.6424553299549169  1.0000
  C   C8        1.0  0.21397404089151922  0.20888059648389  0.6626053526935027  1.0000
  C   C9        1.0  0.15164754690150412  0.296875523643342  0.6250646246543674  1.0000
  N   N2        1.0  0.10155045582427241  0.367614919282627  0.5948854279758686  1.0000
  C   C10       1.0  0.200417950841969  0.08400529414373126  0.7192757099817808  1.0000
  C   C11       1.0  0.2608667792136891  0.9988645423450913  0.7561504759791182  1.0000
  C   C12       1.0  0.3350353769201194  0.03767199693832146  0.7361300665611676  1.0000
  O   O1        1.0  0.4409824958453123  0.3415463456945662  0.6548803384948543  1.0000
  C   C13       1.0  0.5087043597960972  0.3989130131900207  0.6062687815348184  1.0000
  H   H1        1.0  0.6094379402492448  0.10507154267088836  0.6216718153449567  1.0000
  H   H2        1.0  0.4781553954723793  0.021435692062073075  0.6367463694431554  1.0000
  H   H3        1.0  0.2981303821205055  0.3449906603665429  0.5980238190638254  1.0000
  H   H4        1.0  0.1432054882475589  0.05272150729791414  0.7354173795690122  1.0000
  H   H5        1.0  0.2502458328466149  0.9027105226428366  0.8010430589106274  1.0000
  H   H6        1.0  0.3805710784926226  0.970450488427996  0.7685536108065074  1.0000
  H   H7        1.0  0.49923803316820753  0.43481324716926806  0.502744231008909  1.0000
  H   H8        1.0  0.5215741436054337  0.48331518744213  0.662842976465899  1.0000
  C   C14       1.0  0.9060714443591833  0.9956944880844173  0.5900548841501347  1.0000
  C   C15       1.0  0.8842176770486707  0.9856218690593485  0.7209429417947639  1.0000
  C   C16       1.0  0.8730843229252739  0.8633845958353675  0.7872302744081499  1.0000
  C   C17       1.0  0.8840821026639293  0.7503461093447253  0.7208737822832316  1.0000
  C   C18       1.0  0.9059358365374143  0.7584265149526949  0.5899847913307892  1.0000
  C   C19       1.0  0.9168098953984021  0.8815478885829734  0.525308947035803  1.0000
  C   C20       1.0  0.8499688725907697  0.8537822171314637  0.9257038611585204  1.0000
  C   C21       1.0  0.7949027834754018  0.765590065850208  0.9693957614445836  1.0000
  C   C22       1.0  0.7732151022929853  0.7568229119201043  0.09958896420299423  1.0000
  C   C23       1.0  0.8061051967508366  0.8356034388274665  0.18775271009419714  1.0000
  C   C24       1.0  0.8613720641519429  0.9243955025632988  0.14593743700097817  1.0000
  C   C25       1.0  0.8828258308028434  0.9328126243425049  0.015211730130592738  1.0000
  O   O2        1.0  0.896249180272025  0.005433633634523094  0.2306710881491323  1.0000
  C   C26       1.0  0.880061011910559  0.0072313801662013955  0.3655981447131724  1.0000
  H   H9        1.0  0.914431690651237  0.32698247563129357  0.5402030293952795  1.0000
  H   H10       1.0  0.8748033504008284  0.07311725820778259  0.7711350294700727  1.0000
  H   H11       1.0  0.8765555165496208  0.6558240631114848  0.7720519676563473  1.0000
  H   H12       1.0  0.9336697343497984  0.8885500640526419  0.42433435502746963  1.0000
  H   H13       1.0  0.914225557790025  0.4340558647055291  0.540093546269254  1.0000
  H   H14       1.0  0.7679151658458981  0.7046468874398588  0.9025167888228682  1.0000
  H   H15       1.0  0.7305920030763949  0.6889221804156098  0.1322045554480843  1.0000
  H   H16       1.0  0.788214329124431  0.8267466292860036  0.2879693198500154  1.0000
  H   H17       1.0  0.9260577250431911  0.00025814468871199203  0.9841240971962899  1.0000
  H   H18       1.0  0.8930936448410552  0.9100865776449121  0.4165432092614766  1.0000
  H   H19       1.0  0.9156695315826432  0.08016122620411403  0.4086976814015062  1.0000
  H   H20       1.0  0.8198163377669662  0.03505762480966723  0.3785322831327924  1.0000
  C   C27       1.0  0.906029325428334  0.3769447545720874  0.20866842007268738  1.0000
  C   C28       1.0  0.8321289450890413  0.33121453839540815  0.2096525925469237  1.0000
  C   C29       1.0  0.7946565940884448  0.3081597712274611  0.09300279239717968  1.0000
  C   C30       1.0  0.8320770585311846  0.3314483464908564  0.9743465687672375  1.0000
  C   C31       1.0  0.9059779193045022  0.3771763129569814  0.9713712640936634  1.0000
  C   C32       1.0  0.9425401066453537  0.3996689534440061  0.08904109778584957  1.0000
  C   C33       1.0  0.7164742746204795  0.2597804196599487  0.09509733843154633  1.0000
  C   C34       1.0  0.6952828974152754  0.16235095798707522  0.1898767945502291  1.0000
  C   C35       1.0  0.6216941834155167  0.1168720060928281  0.19171438442745115  1.0000
  C   C36       1.0  0.56813279587125  0.16798612985018857  0.09907129687039284  1.0000
  C   C37       1.0  0.5888262530627075  0.2650494957812619  0.004438836066243956  1.0000
  C   C38       1.0  0.6623922886186365  0.3106308052984228  0.0023343923020293644  1.0000
  N   N3        1.0  0.49286863049242197  0.12141210224271548  0.1010874532526096  1.0000
  H   H21       1.0  0.9342015977015191  0.394315773944651  0.5357513305938029  1.0000
  H   H22       1.0  0.8031590241825054  0.3151115280509347  0.3012181486051757  1.0000
  H   H23       1.0  0.803818376755726  0.3121385639349741  0.884314020662357  1.0000
  H   H24       1.0  0.9995510116425697  0.43494681505856114  0.08751387107569752  1.0000
  H   H25       1.0  0.9341261601074505  0.39465636887158473  0.6427796443667502  1.0000
  H   H26       1.0  0.7358844534883752  0.12012064337276507  0.2615415420157612  1.0000
  H   H27       1.0  0.6064843624668733  0.04156062669410243  0.26516049433046596  1.0000
  H   H28       1.0  0.5479099541177053  0.3056297155269796  0.9324963406192461  1.0000
  H   H29       1.0  0.6767197406554807  0.3868513212811624  0.9291982441775879  1.0000
  H   H30       1.0  0.45254805404173637  0.15891708687983308  0.03241539556137507  1.0000
  H   H31       1.0  0.4769110709841758  0.04908212358392472  0.1712675441603717  1.0000
  Zn  Zn1       1.0  0.8233128345195782  0.38105840105918154  0.5879618676263656  1.0000
  Zn  Zn2       1.0  0.9886871977437186  0.3730623573079854  0.5920770771560024  1.0000
  C   C39       1.0  0.9059868820993072  0.3719588904281632  0.8272045585262653  1.0000
  C   C40       1.0  0.9060149557469199  0.38216341928977604  0.35283455850418877  1.0000
  C   C41       1.0  0.905957914881085  0.6142525679116881  0.5848230465638777  1.0000
  C   C42       1.0  0.9060438668072242  0.13986818424456482  0.5952161384410937  1.0000
  O   O3        1.0  0.9687688431458941  0.3808747281375797  0.402779732625965  1.0000
  O   O4        1.0  0.968748310084572  0.3671777895476702  0.7803823594790851  1.0000
  O   O5        1.0  0.9687240725811126  0.5628330396532195  0.5846575525032591  1.0000
  O   O6        1.0  0.9687930242231946  0.18521949002125448  0.5985044408264895  1.0000
  O   O7        1.0  0.8432069516059485  0.5689012710759813  0.5815345025447292  1.0000
  O   O8        1.0  0.8432311888331722  0.37324758126218693  0.7772592401348879  1.0000
  O   O9        1.0  0.8432517220579402  0.3869444741195003  0.39965505195802886  1.0000
  O   O10       1.0  0.8432759031272458  0.19128922674402005  0.5953798575227052  1.0000
