data_image0
_chemical_formula_structural       NC9NC3OCH8C13OH12C13OH12Zn2C4O8
_chemical_formula_sum              "N2 C43 O11 H32 Zn2"
_cell_length_a       17.728193572023454
_cell_length_b       10.299150109392551
_cell_length_c       10.299153481560891
_cell_angle_alpha    85.56204594622189
_cell_angle_beta     90.72181207759093
_cell_angle_gamma    88.43520969070386

_space_group_name_H-M_alt    "P 1"
_space_group_IT_number       1

loop_
  _space_group_symop_operation_xyz
  'x, y, z'

loop_
  _atom_site_type_symbol
  _atom_site_label
  _atom_site_symmetry_multiplicity
  _atom_site_fract_x
  _atom_site_fract_y
  _atom_site_fract_z
  _atom_site_occupancy
  N   N1        1.0  0.7101017545817679  0.3865269250312169  0.5846759657525424  1.0000
  C   C1        1.0  0.6494957434613542  0.3491004151782362  0.5976944373767819  1.0000
  C   C2        1.0  0.5740495867914239  0.30257427568532314  0.6138970740363914  1.0000
  C   C3        1.0  0.5621669155904674  0.17452862725612062  0.6233619821121392  1.0000
  C   C4        1.0  0.4854644203845227  0.12507829517275493  0.6383300982850184  1.0000
  C   C5        1.0  0.4273101278296851  0.20776154765202026  0.6557716983856776  1.0000
  C   C6        1.0  0.3492700233875316  0.1627175819177784  0.6775219903596172  1.0000
  C   C7        1.0  0.2879132415370558  0.24818080533624665  0.64203001094076  1.0000
  C   C8        1.0  0.21364617464052363  0.20888196974809503  0.6621920793660299  1.0000
  C   C9        1.0  0.15131000587864052  0.2968814729961371  0.6246248295639958  1.0000
  N   N2        1.0  0.10120513720118  0.36762454736063876  0.5944243119525332  1.0000
  C   C10       1.0  0.2001046199124538  0.08400042751985093  0.7189002763489554  1.0000
  C   C11       1.0  0.2605629401486335  0.9988552893505274  0.755800736701751  1.0000
  C   C12       1.0  0.334726449142332  0.037664502821868284  0.7357684244418483  1.0000
  O   O1        1.0  0.4406516395157558  0.341558275821614  0.6544299891325671  1.0000
  C   C13       1.0  0.5083614690886773  0.3989261201421488  0.6057997048251405  1.0000
  H   H1        1.0  0.6091012672263968  0.10506113945843087  0.6212847567448911  1.0000
  H   H2        1.0  0.477823028680892  0.02141939724772235  0.6363832920166932  1.0000
  H   H3        1.0  0.2977860054789466  0.34499862440634144  0.5975691342404907  1.0000
  H   H4        1.0  0.1428962601023764  0.05271522299105946  0.7350515413116017  1.0000
  H   H5        1.0  0.2499534840855953  0.9026965589617132  0.8007225310056236  1.0000
  H   H6        1.0  0.3802704301436418  0.97043977882085  0.7682124522847495  1.0000
  H   H7        1.0  0.49887026619227687  0.43482161948509  0.5022590826351747  1.0000
  H   H8        1.0  0.521243939983622  0.48333961255397573  0.6623539725156651  1.0000
  C   C14       1.0  0.9057282236697519  0.9956725383181544  0.5896961317047211  1.0000
  C   C15       1.0  0.904361375212952  0.983985685720212  0.7264735671022877  1.0000
  C   C16       1.0  0.9036026455497157  0.8609286803420243  0.7955572963623936  1.0000
  C   C17       1.0  0.9042158136620958  0.7487372399084714  0.7261065418989321  1.0000
  C   C18       1.0  0.9055859239707815  0.7584685610475145  0.5894155872646185  1.0000
  C   C19       1.0  0.9063361977272166  0.8823972114091975  0.5220092452554081  1.0000
  C   C20       1.0  0.9021500796843223  0.8495473507766216  0.9401620273104798  1.0000
  C   C21       1.0  0.8557574157068772  0.7589347968724531  0.007027475106712422  1.0000
  C   C22       1.0  0.854365550532335  0.7483075948028749  0.1430997592251818  1.0000
  C   C23       1.0  0.8998361617356174  0.8271125241340463  0.21477881745378558  1.0000
  C   C24       1.0  0.9455069355703777  0.9187138429900383  0.1485379516121741  1.0000
  C   C25       1.0  0.9469163184136685  0.9295159953389569  0.012465815410961811  1.0000
  C   C26       1.0  0.8967536959997281  0.818123791020674  0.3607890852015708  1.0000
  O   O2        1.0  0.8403560401188225  0.9040400266567438  0.399624244569562  1.0000
  H   H9        1.0  0.907817927649388  0.22504855218962883  0.3315100923236134  1.0000
  H   H10       1.0  0.9028374814391796  0.07085124980610957  0.7794444615422476  1.0000
  H   H11       1.0  0.904655354932908  0.6536118693946843  0.7789513117891462  1.0000
  H   H12       1.0  0.907390869386555  0.8906195823624682  0.4165753686027138  1.0000
  H   H13       1.0  0.9060621225794357  0.43473855536726624  0.5368381860465397  1.0000
  H   H14       1.0  0.8196581778640006  0.6976528164781133  0.9540187037452246  1.0000
  H   H15       1.0  0.817663668494532  0.6787692554039929  0.19256080293600886  1.0000
  H   H16       1.0  0.9802162247331819  0.9816162294516269  0.20225828814453417  1.0000
  H   H17       1.0  0.9836436224805627  0.9994988184811227  0.9638120531852277  1.0000
  H   H18       1.0  0.9522709972398774  0.8432836879995066  0.40234310111044935  1.0000
  H   H19       1.0  0.8844961242932133  0.7167080082998686  0.39829635851228495  1.0000
  H   H20       1.0  0.8406519610014679  0.89438194486889  0.49625884888181193  1.0000
  C   C27       1.0  0.9055922882418219  0.3769262610017756  0.20818173646076565  1.0000
  C   C28       1.0  0.8275741616910652  0.3563148101880058  0.2069174521739512  1.0000
  C   C29       1.0  0.7881541829852657  0.34602053659454457  0.08911222780885164  1.0000
  C   C30       1.0  0.8277521513567787  0.35662353166483785  0.9716138057630905  1.0000
  C   C31       1.0  0.9057218750379544  0.377214885863169  0.9709299443690385  1.0000
  C   C32       1.0  0.9441866747163693  0.38724240981608493  0.0897360854811402  1.0000
  C   C33       1.0  0.7056697802050769  0.3242422425269271  0.08874863545864997  1.0000
  C   C34       1.0  0.6579288751169468  0.3917914887257863  0.9948673596703443  1.0000
  C   C35       1.0  0.580306174678624  0.37134077515284747  0.9946031364919223  1.0000
  C   C36       1.0  0.5491180430191044  0.2821287618308186  0.08731871806932401  1.0000
  C   C37       1.0  0.5963524794030872  0.21570035962147838  0.18210550212615795  1.0000
  C   C38       1.0  0.6739787654225774  0.23612125018375618  0.18254797510399956  1.0000
  C   C39       1.0  0.46549265364948367  0.2628819415273591  0.08915919595762789  1.0000
  O   O3        1.0  0.43158065362967324  0.3521158689929649  0.167789295764039  1.0000
  H   H21       1.0  0.052759238614911164  0.41666574230937536  0.4177938072506371  1.0000
  H   H22       1.0  0.7971505820624354  0.3500208929507276  0.2976375377734337  1.0000
  H   H23       1.0  0.7978125077465928  0.3470174036897755  0.8806924484477272  1.0000
  H   H24       1.0  0.0043266466583937735  0.4031288031267215  0.08992441192844747  1.0000
  H   H25       1.0  0.9357017731615592  0.38522145094733506  0.6431845748173428  1.0000
  H   H26       1.0  0.680474210903731  0.46196365225365454  0.9228457605481357  1.0000
  H   H27       1.0  0.5444909788518674  0.42535616514195684  0.922210611750665  1.0000
  H   H28       1.0  0.5731108592788101  0.14776841760120685  0.2555488252928999  1.0000
  H   H29       1.0  0.7093404509380722  0.1819272627522821  0.25545248228411754  1.0000
  H   H30       1.0  0.45353423180345703  0.16166450092977303  0.1277169864918064  1.0000
  H   H31       1.0  0.4416033759382967  0.2774028599218694  0.9884280345209011  1.0000
  H   H32       1.0  0.3767249829665622  0.33541197186525085  0.16572565199304923  1.0000
  Zn  Zn1       1.0  0.822965755892178  0.38106863932258594  0.5874966289838226  1.0000
  Zn  Zn2       1.0  0.9883411652718536  0.3730722324259559  0.5916142904348587  1.0000
  C   C40       1.0  0.9056966476300646  0.3719862700199359  0.8267560741298621  1.0000
  C   C41       1.0  0.9056120791442348  0.38215615322247887  0.3523550171189811  1.0000
  C   C42       1.0  0.9056080574773586  0.6142821439031638  0.5842932587704113  1.0000
  C   C43       1.0  0.9057006131687368  0.1398587216519216  0.5948179008868872  1.0000
  O   O4        1.0  0.9683778282073187  0.3808710918355538  0.4023035202924814  1.0000
  O   O5        1.0  0.9684470078789345  0.36720126364497796  0.7799324072307556  1.0000
  O   O6        1.0  0.9683746244168774  0.5628582874740153  0.5841419468013107  1.0000
  O   O7        1.0  0.9684501552196761  0.18521407998935402  0.5980938819374357  1.0000
  O   O8        1.0  0.842856709509843  0.5689267944893803  0.5810170360692579  1.0000
  O   O9        1.0  0.8429290926655918  0.3732713310778648  0.7768074266782596  1.0000
  O   O10       1.0  0.8428599127873677  0.386941113415155  0.39917697833591936  1.0000
  O   O11       1.0  0.8429322398149124  0.19128409231630994  0.5949674373533769  1.0000
