data_image0
_chemical_formula_structural       NC9NC3OCH8C13OH12C13NH9Zn2C4O8
_chemical_formula_sum              "N3 C43 O10 H29 Zn2"
_cell_length_a       17.728193572023454
_cell_length_b       10.299150109392551
_cell_length_c       10.298528502251457
_cell_angle_alpha    85.52101086159662
_cell_angle_beta     90.70114426090622
_cell_angle_gamma    88.43520969070386

_space_group_name_H-M_alt    "P 1"
_space_group_IT_number       1

loop_
  _space_group_symop_operation_xyz
  'x, y, z'

loop_
  _atom_site_type_symbol
  _atom_site_label
  _atom_site_symmetry_multiplicity
  _atom_site_fract_x
  _atom_site_fract_y
  _atom_site_fract_z
  _atom_site_occupancy
  N   N1        1.0  0.7103819033799729  0.3875299624566111  0.5845180860103201  1.0000
  C   C1        1.0  0.6497733153873436  0.35009422643778776  0.5975380098482532  1.0000
  C   C2        1.0  0.5743239515725629  0.3035566041673865  0.6137424539159453  1.0000
  C   C3        1.0  0.5624394068906521  0.17550424797600495  0.6232084178045045  1.0000
  C   C4        1.0  0.4857339489004573  0.126043308017449  0.6381782036744037  1.0000
  C   C5        1.0  0.427576203960732  0.20871419966821358  0.6556217493898211  1.0000
  C   C6        1.0  0.3495317942725646  0.16365481954381433  0.6773744676141509  1.0000
  C   C7        1.0  0.28818203769343254  0.24914319605994617  0.6418785290563076  1.0000
  C   C8        1.0  0.2139109799233605  0.20983007165261625  0.6620428465652421  1.0000
  C   C9        1.0  0.1515822472111941  0.2978561987384569  0.6244714061273033  1.0000
  N   N2        1.0  0.1014833564147767  0.3686206761517994  0.5942675196407139  1.0000
  C   C10       1.0  0.2003582003924549  0.08490834043405981  0.7187573693614127  1.0000
  C   C11       1.0  0.2608092165630138  0.9997370509793401  0.7556619459695864  1.0000
  C   C12       1.0  0.3349766907463572  0.03856046131191415  0.7356273991003512  1.0000
  O   O1        1.0  0.4409179812243142  0.3425118787045791  0.654279890468715  1.0000
  C   C13       1.0  0.5086374366605543  0.3999141872142231  0.6056441814411786  1.0000
  H   H1        1.0  0.609374169691923  0.10603823230394416  0.6211309607222586  1.0000
  H   H2        1.0  0.47809294254705265  0.022385789790280386  0.6362311802393636  1.0000
  H   H3        1.0  0.2980636022073997  0.34599252446798534  0.5974126927343666  1.0000
  H   H4        1.0  0.143146643606025  0.05361168953480311  0.7349104360016159  1.0000
  H   H5        1.0  0.2501908686940125  0.9035464846011609  0.8005887513106023  1.0000
  H   H6        1.0  0.3805142497869081  0.971312744290662  0.7680750460824943  1.0000
  H   H7        1.0  0.499166728562638  0.43588306559729406  0.5020920092694805  1.0000
  H   H8        1.0  0.521508713221379  0.4842875997251326  0.6622047577740973  1.0000
  C   C14       1.0  0.906007378777873  0.996672017961578  0.5895388119632388  1.0000
  C   C15       1.0  0.9046134566381419  0.9848882314578066  0.7263315049171808  1.0000
  C   C16       1.0  0.9038410525630681  0.8617822665733453  0.7954229404841842  1.0000
  C   C17       1.0  0.9044679677361399  0.7496400457561228  0.7259644387720736  1.0000
  C   C18       1.0  0.9058651346097816  0.7594682395122437  0.5892582362283347  1.0000
  C   C19       1.0  0.9066287507565448  0.8834446606190762  0.5218443750251855  1.0000
  C   C20       1.0  0.9023598636823018  0.8502984559127869  0.9400438021253794  1.0000
  C   C21       1.0  0.8559539643789608  0.7596385145941587  0.006916708778669456  1.0000
  C   C22       1.0  0.8545351650989117  0.748914878358109  0.14300417179371694  1.0000
  C   C23       1.0  0.8999915881717496  0.8276690088783507  0.21469122583879963  1.0000
  C   C24       1.0  0.9456754737028481  0.9193172725087702  0.14844297081240054  1.0000
  C   C25       1.0  0.9471117906223672  0.9302158589193315  0.01235565573110986  1.0000
  C   C26       1.0  0.8968802212089714  0.8185767985685914  0.36071778106766783  1.0000
  O   O2        1.0  0.8404748783087249  0.9044655118017877  0.39955727250718587  1.0000
  H   H9        1.0  0.9081481880216716  0.22623100778339778  0.33132397186628326  1.0000
  H   H10       1.0  0.9030790778220344  0.07171625517252833  0.7793083082733723  1.0000
  H   H11       1.0  0.9048970489296709  0.654477224255386  0.7788151035092958  1.0000
  H   H12       1.0  0.9077042919645654  0.8917417523582792  0.41639873719776044  1.0000
  H   H13       1.0  0.9063517403728453  0.43577549533528087  0.5366749699882896  1.0000
  H   H14       1.0  0.8198652190757653  0.6983941014142966  0.9539020242757701  1.0000
  H   H15       1.0  0.8178234927575326  0.6793414860125234  0.19247073289606864  1.0000
  H   H16       1.0  0.9803741294789831  0.9821815874710108  0.20216929986144117  1.0000
  H   H17       1.0  0.9838487251997917  0.0002331628893628146  0.9636964661662986  1.0000
  H   H18       1.0  0.9523892972601631  0.843707246296141  0.40227643233718546  1.0000
  H   H19       1.0  0.8846152253244679  0.7171344345152115  0.39822923832389423  1.0000
  H   H20       1.0  0.840751671367912  0.8947389452554138  0.49620265643318473  1.0000
  C   C27       1.0  0.9059469601904256  0.37819611916453244  0.20798185869517094  1.0000
  C   C28       1.0  0.8274884070330099  0.4018530266104341  0.20352872234532704  1.0000
  C   C29       1.0  0.7877406368250353  0.41369955161085725  0.08412603727465062  1.0000
  C   C30       1.0  0.8274659289535025  0.4015892328606312  0.9682685545978194  1.0000
  C   C31       1.0  0.9059255539387464  0.3779441541860227  0.970815136408794  1.0000
  C   C32       1.0  0.9446636685074463  0.36639624555199135  0.09112605270250063  1.0000
  C   C33       1.0  0.7047941665117785  0.43870393747682845  0.08042585031836924  1.0000
  C   C34       1.0  0.6714583244169234  0.5282537503947706  0.160478958483109  1.0000
  C   C35       1.0  0.5933809057697937  0.5517433286678106  0.1568765134458976  1.0000
  C   C36       1.0  0.5476004065310419  0.48609279584944365  0.07341088562586884  1.0000
  C   C37       1.0  0.5801913784325814  0.396815349707365  0.9934431306454119  1.0000
  C   C38       1.0  0.6582607591603986  0.37323178790108336  0.9968087993555566  1.0000
  C   C39       1.0  0.4672196130059486  0.5103260403956287  0.0698228103295746  1.0000
  N   N3        1.0  0.40259887518442916  0.5298080579233155  0.06693827472193248  1.0000
  H   H21       1.0  0.05414049336392934  0.33268844472056625  0.4237826127924256  1.0000
  H   H22       1.0  0.7970099294684256  0.4093349278672318  0.293282391172659  1.0000
  H   H23       1.0  0.7972706952320658  0.41239709584974493  0.8758084836596631  1.0000
  H   H24       1.0  0.005133191141755367  0.3481681229107856  0.0938232901633087  1.0000
  H   H25       1.0  0.05425822477237707  0.33407266622640885  0.7682408218381709  1.0000
  H   H26       1.0  0.7058709603839695  0.5813625923439067  0.22461993056626683  1.0000
  H   H27       1.0  0.5687661979979842  0.6213291861502228  0.21894511616977752  1.0000
  H   H28       1.0  0.5452568795399744  0.34518201632811074  0.9287168940310977  1.0000
  H   H29       1.0  0.6821347238700994  0.3025514664346822  0.9352689218624408  1.0000
  Zn  Zn1       1.0  0.823245346369182  0.3820696777493642  0.5873390638872735  1.0000
  Zn  Zn2       1.0  0.9886199407002335  0.3740703526739706  0.5914571846644514  1.0000
  C   C40       1.0  0.90592887916707  0.37281774573736026  0.826625198482944  1.0000
  C   C41       1.0  0.9059382134786016  0.3833238360580715  0.3521712219181101  1.0000
  C   C42       1.0  0.9058882820284642  0.6152854525522615  0.5841353363371313  1.0000
  C   C43       1.0  0.9059787544754622  0.14085457150736036  0.5946611524800098  1.0000
  O   O3        1.0  0.9686940757505355  0.3820033762628572  0.40212529685935783  1.0000
  O   O4        1.0  0.9686885076779715  0.36806592320522413  0.7797963083923414  1.0000
  O   O5        1.0  0.9686548789186272  0.5638617033576148  0.5839840074891434  1.0000
  O   O6        1.0  0.9687276480797335  0.1862076081633126  0.5979374989670454  1.0000
  O   O7        1.0  0.8431375825554491  0.5699324249912152  0.5808587481725342  1.0000
  O   O8        1.0  0.8431712110223055  0.37413820530582753  0.7766709792475006  1.0000
  O   O9        1.0  0.8431767791973248  0.3880756136167396  0.3989984061362759  1.0000
  O   O10       1.0  0.8432103515224364  0.1922798361955418  0.5948107056273289  1.0000
