data_image0
_chemical_formula_structural       NC9NC3OCH8C12OCH12C12ClH9Zn2C4O8
_chemical_formula_sum              "N2 C42 O10 H29 Cl1 Zn2"
_cell_length_a       17.728193572023454
_cell_length_b       10.29979075500242
_cell_length_c       10.299771906710086
_cell_angle_alpha    85.53978707277841
_cell_angle_beta     90.7132806509017
_cell_angle_gamma    88.43583692371088

_space_group_name_H-M_alt    "P 1"
_space_group_IT_number       1

loop_
  _space_group_symop_operation_xyz
  'x, y, z'

loop_
  _atom_site_type_symbol
  _atom_site_label
  _atom_site_symmetry_multiplicity
  _atom_site_fract_x
  _atom_site_fract_y
  _atom_site_fract_z
  _atom_site_occupancy
  N   N1        1.0  0.7102208803086534  0.38734682423462785  0.585073382305973  1.0000
  C   C1        1.0  0.6496135587667469  0.34991484796189964  0.5980813892451546  1.0000
  C   C2        1.0  0.5741657716354411  0.3033819004471905  0.6142710167090029  1.0000
  C   C3        1.0  0.5622812703552555  0.1753407588139313  0.6237004883828723  1.0000
  C   C4        1.0  0.4855772126298003  0.12588468153814358  0.6386548012308584  1.0000
  C   C5        1.0  0.4274223201275132  0.20854943858386066  0.656119038022954  1.0000
  C   C6        1.0  0.3493801784696067  0.16349486928965629  0.6778566719643098  1.0000
  C   C7        1.0  0.2880268250033313  0.24897438952347795  0.6423886487383421  1.0000
  C   C8        1.0  0.21375789101936732  0.20966551808688894  0.6625396612255969  1.0000
  C   C9        1.0  0.1514253296926969  0.29768247803112136  0.6249970892239962  1.0000
  N   N2        1.0  0.10132336105033  0.3684395859466465  0.5948164101739819  1.0000
  C   C10       1.0  0.2002109600392865  0.08475695571553854  0.7192128021043169  1.0000
  C   C11       1.0  0.2606657481148023  0.9995945619875733  0.7560893793527401  1.0000
  C   C12       1.0  0.3348311101204282  0.038413766629216584  0.736067986552595  1.0000
  O   O1        1.0  0.4407650974555036  0.3423358011354569  0.6548142675820903  1.0000
  C   C13       1.0  0.5084791048010274  0.39973099892396324  0.606200322871707  1.0000
  H   H1        1.0  0.6092151746942184  0.10588048831033547  0.6216041132632351  1.0000
  H   H2        1.0  0.4779350662684687  0.02223579039291823  0.6366794078082341  1.0000
  H   H3        1.0  0.29790379457368094  0.3458134850978398  0.5979549554165244  1.0000
  H   H4        1.0  0.1430011062633164  0.053463695267301325  0.7353552645539776  1.0000
  H   H5        1.0  0.25005205729199165  0.903414194671151  0.8009841673623663  1.0000
  H   H6        1.0  0.3803720519897708  0.9711732286272036  0.7684931234095256  1.0000
  H   H7        1.0  0.4989960465237284  0.4356919918245299  0.5026706873249314  1.0000
  H   H8        1.0  0.5213580321380625  0.4840999695829049  0.6627772966698318  1.0000
  C   C14       1.0  0.9058435688722088  0.9965219898115273  0.5899856290768375  1.0000
  C   C15       1.0  0.8840109557041801  0.9863725521269651  0.7208801158100349  1.0000
  C   C16       1.0  0.8728883149468781  0.8640963746352883  0.7871707043899308  1.0000
  C   C17       1.0  0.8838753701418708  0.7510968330023013  0.7208109529014575  1.0000
  C   C18       1.0  0.9057079497220305  0.7592540578175262  0.5899155328146037  1.0000
  C   C19       1.0  0.9165715556658455  0.8824133899273614  0.5252365117077773  1.0000
  C   C20       1.0  0.8497952447289182  0.8544127252982894  0.9256510928223618  1.0000
  C   C21       1.0  0.7947362171033504  0.766194931087716  0.969345139210229  1.0000
  C   C22       1.0  0.7730695777608935  0.7573513663108851  0.09954473692664079  1.0000
  C   C23       1.0  0.8059739212531949  0.8360801496069726  0.1877128133315744  1.0000
  C   C24       1.0  0.8612340304651971  0.9248967548730498  0.1458954863145746  1.0000
  C   C25       1.0  0.8826666692127644  0.9333906000275115  0.015163358330126275  1.0000
  O   O2        1.0  0.8961248412474341  0.005885155467618697  0.23063329949368672  1.0000
  C   C26       1.0  0.8799584798119078  0.007603712837189747  0.36556698353782313  1.0000
  H   H9        1.0  0.9141957581019337  0.32783923558657535  0.5401313256494655  1.0000
  H   H10       1.0  0.8746047411071493  0.07383848336333454  0.7710746688697556  1.0000
  H   H11       1.0  0.8763570554515937  0.6565447501128032  0.7719916520951038  1.0000
  H   H12       1.0  0.9334150750924126  0.8894748277387636  0.4242569599299528  1.0000
  H   H13       1.0  0.9139896075460467  0.43491268891684104  0.5400218371457401  1.0000
  H   H14       1.0  0.7677377904868279  0.7052910041806557  0.9024628815612461  1.0000
  H   H15       1.0  0.7304517498797999  0.6894314926016464  0.13216193021647482  1.0000
  H   H16       1.0  0.7880992506464419  0.8271645225862151  0.28793434562556564  1.0000
  H   H17       1.0  0.9258935390664076  0.000854365814378033  0.9840741984028414  1.0000
  H   H18       1.0  0.8929993464894221  0.9104290104790721  0.4165145504559996  1.0000
  H   H19       1.0  0.9155739652359217  0.08050826360605501  0.40866863723166236  1.0000
  H   H20       1.0  0.8197158960852098  0.03542236638951324  0.37850175726919677  1.0000
  C   C27       1.0  0.9057398102184724  0.37799609335084794  0.2085804316833002  1.0000
  C   C28       1.0  0.9741773628665195  0.44357045603344347  0.20395161555862362  1.0000
  C   C29       1.0  0.008892047183469476  0.4766875791506351  0.08447674659267523  1.0000
  C   C30       1.0  0.97425019858393  0.4433517729682226  0.9686836725541066  1.0000
  C   C31       1.0  0.9058116751897315  0.37778001710188613  0.9713208083114218  1.0000
  C   C32       1.0  0.8719400811664967  0.3454685320818911  0.0917467337906861  1.0000
  C   C33       1.0  0.08129377270868798  0.5460583668848986  0.08063360517879681  1.0000
  C   C34       1.0  0.09320259282647614  0.6484876655838074  0.16072337251350488  1.0000
  C   C35       1.0  0.1613828152866219  0.713678850233328  0.15691960435089625  1.0000
  C   C36       1.0  0.21842781871535633  0.6774503285970912  0.07335555175843012  1.0000
  C   C37       1.0  0.20723929194426427  0.5758456743112279  0.9934124482088147  1.0000
  C   C38       1.0  0.139126747316191  0.5104508962796637  0.9968422886208845  1.0000
  Cl  Cl1       1.0  0.303924944800426  0.7593672475945841  0.06881830466969796  1.0000
  H   H21       1.0  0.8796417555085847  0.3530672459725306  0.5377926794514014  1.0000
  H   H22       1.0  0.0011731412615059167  0.4674648722799264  0.29360272892455996  1.0000
  H   H23       1.0  0.0002513793708183165  0.4702358463962717  0.8762193804159306  1.0000
  H   H24       1.0  0.819143200737858  0.294882071850195  0.09454943833909657  1.0000
  H   H25       1.0  0.879747839820821  0.35274754620580273  0.6448761649188275  1.0000
  H   H26       1.0  0.04944850089349462  0.6792559868003267  0.22500481617171864  1.0000
  H   H27       1.0  0.1697131483739196  0.7925500001377717  0.2187538155449178  1.0000
  H   H28       1.0  0.2513373919177193  0.5472078671550371  0.9287958116023756  1.0000
  H   H29       1.0  0.1320490870003388  0.43097891058979565  0.9352588659114969  1.0000
  Zn  Zn1       1.0  0.8230846207590395  0.38188713118502027  0.5878925097462209  1.0000
  Zn  Zn2       1.0  0.9884596490838035  0.37388867220293753  0.5920079214107736  1.0000
  C   C39       1.0  0.9057973347691717  0.3726472081807173  0.8271469520043169  1.0000
  C   C40       1.0  0.9057487406844404  0.3831301464569201  0.35275365140922355  1.0000
  C   C41       1.0  0.9057291938239358  0.6150831402226031  0.584753534508027  1.0000
  C   C42       1.0  0.9058168254827441  0.14069265681345322  0.5951471368833692  1.0000
  O   O3        1.0  0.9685107002280304  0.3818121423070886  0.402701278787269  1.0000
  O   O4        1.0  0.9685511953454009  0.36789358741284905  0.7803224530982342  1.0000
  O   O5        1.0  0.9684953247767952  0.5636637090931784  0.5845880323185084  1.0000
  O   O6        1.0  0.9685665143545131  0.18604203267395514  0.5984356007868414  1.0000
  O   O7        1.0  0.842977699053948  0.5697337734449  0.5814648289589337  1.0000
  O   O8        1.0  0.8430335693351041  0.37396521209704847  0.7771991803495839  1.0000
  O   O9        1.0  0.842993074128838  0.3878837221750375  0.3995764446381893  1.0000
  O   O10       1.0  0.8430488882630621  0.1921136032256059  0.5953108640066962  1.0000
