data_image0
_chemical_formula_structural       NC9NC3OCH8C16H10C12BrH9Zn2C4O8
_chemical_formula_sum              "N2 C45 O9 H27 Br1 Zn2"
_cell_length_a       17.728193572023454
_cell_length_b       10.29914801576943
_cell_length_c       10.299148005577397
_cell_angle_alpha    85.52895802354352
_cell_angle_beta     90.67765201936251
_cell_angle_gamma    88.46752555428026

_space_group_name_H-M_alt    "P 1"
_space_group_IT_number       1

loop_
  _space_group_symop_operation_xyz
  'x, y, z'

loop_
  _atom_site_type_symbol
  _atom_site_label
  _atom_site_symmetry_multiplicity
  _atom_site_fract_x
  _atom_site_fract_y
  _atom_site_fract_z
  _atom_site_occupancy
  N   N1        1.0  0.7111780474276829  0.38722152133680043  0.584566543134069  1.0000
  C   C1        1.0  0.650554058557429  0.3497889008753736  0.5975872058525289  1.0000
  C   C2        1.0  0.5750855448195609  0.3032551555765175  0.6137925669077577  1.0000
  C   C3        1.0  0.5631567903026172  0.1752062024846177  0.6232639093050616  1.0000
  C   C4        1.0  0.4864315235145363  0.1257489171085866  0.6382348528921642  1.0000
  C   C5        1.0  0.42829663145789126  0.20842248384875273  0.6556730112794888  1.0000
  C   C6        1.0  0.3502322157636175  0.16336811163346976  0.6774261244558062  1.0000
  C   C7        1.0  0.2889190207380962  0.24884818129404707  0.6419289671549053  1.0000
  C   C8        1.0  0.21463022189057232  0.20953967139736096  0.6620935328590263  1.0000
  C   C9        1.0  0.1523393828630387  0.297557033685383  0.624520920568689  1.0000
  N   N2        1.0  0.102270954938992  0.3683144650321579  0.5943160920335162  1.0000
  C   C10       1.0  0.20102284573348464  0.0846310809692854  0.7188094426564908  1.0000
  C   C11       1.0  0.2614370639405916  0.9994683861581986  0.7557151082646478  1.0000
  C   C12       1.0  0.335622087529042  0.038287214348907694  0.7356803261624008  1.0000
  O   O1        1.0  0.4416825373605352  0.3422183753590293  0.6543248375332062  1.0000
  C   C13       1.0  0.5094325327342245  0.39960997611194937  0.6056903264685098  1.0000
  H   H1        1.0  0.6100693121123454  0.10574054106362363  0.6211899563285876  1.0000
  H   H2        1.0  0.47875705057669754  0.022092165979582523  0.6362929645667419  1.0000
  H   H3        1.0  0.2988430327725234  0.3456872192743503  0.5974620958581964  1.0000
  H   H4        1.0  0.1437971412341919  0.05333812441270247  0.7349626987091809  1.0000
  H   H5        1.0  0.2507763728899691  0.9032881981214014  0.800642879476122  1.0000
  H   H6        1.0  0.3811297931374659  0.9710469678114402  0.7681285639332947  1.0000
  H   H7        1.0  0.49999861113342864  0.43555702955305065  0.5021448459072799  1.0000
  H   H8        1.0  0.5223177718070092  0.48399413557247706  0.6622422536068313  1.0000
  C   C14       1.0  0.9066743456795437  0.9963690263657461  0.5896056268466479  1.0000
  C   C15       1.0  0.889479949238858  0.0068185680373187285  0.4556964784375288  1.0000
  C   C16       1.0  0.8808175248663375  0.8949842878912411  0.38763846938498325  1.0000
  C   C17       1.0  0.8895807954408107  0.7715619366863548  0.45529438233573827  1.0000
  C   C18       1.0  0.9067818956117057  0.7591566164069227  0.5892884549026478  1.0000
  C   C19       1.0  0.9152241090133911  0.8720815144476357  0.6556190643284323  1.0000
  C   C20       1.0  0.8626281133550077  0.9070842394143204  0.24597874449636636  1.0000
  C   C21       1.0  0.898354701595657  0.8243844109552988  0.1616475116688174  1.0000
  C   C22       1.0  0.8812090903989647  0.8358989193754879  0.028322180110564643  1.0000
  C   C23       1.0  0.8281609557613075  0.9300223342210044  0.9775193519859582  1.0000
  C   C24       1.0  0.7922971121891477  0.012709301039561138  0.06056315948437718  1.0000
  C   C25       1.0  0.8093889130970005  0.0014386566750557161  0.19390809720922197  1.0000
  C   C26       1.0  0.8105373849630958  0.9417514823778296  0.8402491675701227  1.0000
  C   C27       1.0  0.7957778342693909  0.9515745306353155  0.7252873723385198  1.0000
  C   C28       1.0  0.7784945747541844  0.963077188905825  0.5906682830023682  1.0000
  C   C29       1.0  0.7637375013383355  0.9728987375215055  0.47572505819572  1.0000
  H   H9        1.0  0.9132492337122206  0.31982615918116797  0.6411259484925811  1.0000
  H   H10       1.0  0.883801083461581  0.10215600861995378  0.4036422893678404  1.0000
  H   H11       1.0  0.8819539662496488  0.685044894347163  0.40368623823845384  1.0000
  H   H12       1.0  0.9284843808714822  0.8633057306058902  0.7589074284173813  1.0000
  H   H13       1.0  0.938780693725016  0.528458230131757  0.8423618378161346  1.0000
  H   H14       1.0  0.9402657446855774  0.7519483512424244  0.19854375917199985  1.0000
  H   H15       1.0  0.9094595705157281  0.7716196203964226  0.9648484434663449  1.0000
  H   H16       1.0  0.7509866684690627  0.08568087710160599  0.022311924638814373  1.0000
  H   H17       1.0  0.780258944138721  0.06537078372141547  0.256557082470968  1.0000
  H   H18       1.0  0.7507796029378805  0.981522884020557  0.37479521616542666  1.0000
  C   C30       1.0  0.9068309915501777  0.3778098995947661  0.20806137548790837  1.0000
  C   C31       1.0  0.8358570725925324  0.4420261144412849  0.20082954086951  1.0000
  C   C32       1.0  0.7997655141702281  0.47453697543959716  0.08002195353455877  1.0000
  C   C33       1.0  0.835605201032449  0.4419654796844865  0.9655462575850202  1.0000
  C   C34       1.0  0.906625244488577  0.3777157654923786  0.9708326434878254  1.0000
  C   C35       1.0  0.9418006790973604  0.3460316351147461  0.09250289137678602  1.0000
  C   C36       1.0  0.7246842132856315  0.5424718867463292  0.07341647417522124  1.0000
  C   C37       1.0  0.7088470538764898  0.644563994666209  0.15305718790728728  1.0000
  C   C38       1.0  0.638146426090614  0.7083961085041124  0.14664448354217519  1.0000
  C   C39       1.0  0.582479382334284  0.6711401404856667  0.06090886502055648  1.0000
  C   C40       1.0  0.597558710148501  0.5698716024766528  0.9813964639395771  1.0000
  C   C41       1.0  0.6681951486953027  0.5058206072931284  0.9874151227628665  1.0000
  Br  Br1       1.0  0.4859467644510005  0.7584846914532806  0.05241749193243095  1.0000
  H   H19       1.0  0.934146036462371  0.35316152041346416  0.5383149012062591  1.0000
  H   H20       1.0  0.8080136371237402  0.46532030594313123  0.2894657381747894  1.0000
  H   H21       1.0  0.8085072239648633  0.46837262427072424  0.8720437321390517  1.0000
  H   H22       1.0  0.9965457271313337  0.2965039518143031  0.09736496967654529  1.0000
  H   H23       1.0  0.04088266816701713  0.25717290920721925  0.7734664697873246  1.0000
  H   H24       1.0  0.7514321174184958  0.6761252570773468  0.21901227159753134  1.0000
  H   H25       1.0  0.6267615537246284  0.78701954449905  0.20813243148886418  1.0000
  H   H26       1.0  0.554527537006076  0.5404840780537103  0.9151223556004777  1.0000
  H   H27       1.0  0.6783171773160906  0.42656887185775716  0.9260970765127854  1.0000
  Zn  Zn1       1.0  0.8240390214144104  0.38176188175034764  0.5873875538320446  1.0000
  Zn  Zn2       1.0  0.9894100021833419  0.3737634987546603  0.5915057238803103  1.0000
  C   C42       1.0  0.9066617314478491  0.3725595487519071  0.8266546792194107  1.0000
  C   C43       1.0  0.9067890981925628  0.3829673831432361  0.35223877025381767  1.0000
  C   C44       1.0  0.9067590842811954  0.6149743619312591  0.5841728895451084  1.0000
  C   C45       1.0  0.9066916886909541  0.14055101225980504  0.5947206284134352  1.0000
  O   O2        1.0  0.9695324629637797  0.38165727088805435  0.40218884744155337  1.0000
  O   O3        1.0  0.969431114618905  0.36779809363023075  0.7798298243553401  1.0000
  O   O4        1.0  0.969508881898675  0.5635511617775215  0.5840240419649496  1.0000
  O   O5        1.0  0.9694546392816709  0.18590421477303898  0.5979945310438866  1.0000
  O   O6        1.0  0.8439943278830838  0.5696211684628396  0.5808987452563068  1.0000
  O   O7        1.0  0.8439165608385785  0.3738696607504981  0.7767044577492208  1.0000
  O   O8        1.0  0.8440179096484198  0.38772879293910445  0.3990619193862943  1.0000
  O   O9        1.0  0.8439400859356521  0.1919757275226841  0.5948677003645237  1.0000
