data_image0
_chemical_formula_structural       NC9NC3OCH8C16H10C12OCH12Zn2C4O8
_chemical_formula_sum              "N2 C46 O10 H30 Zn2"
_cell_length_a       17.728193572023454
_cell_length_b       10.29914801576943
_cell_length_c       10.299794127170987
_cell_angle_alpha    85.55374609457252
_cell_angle_beta     90.69834653510783
_cell_angle_gamma    88.46752555428026

_space_group_name_H-M_alt    "P 1"
_space_group_IT_number       1

loop_
  _space_group_symop_operation_xyz
  'x, y, z'

loop_
  _atom_site_type_symbol
  _atom_site_label
  _atom_site_symmetry_multiplicity
  _atom_site_fract_x
  _atom_site_fract_y
  _atom_site_fract_z
  _atom_site_occupancy
  N   N1        1.0  0.7108906844096424  0.38662108103548265  0.5846960713362741  1.0000
  C   C1        1.0  0.6502693390101342  0.3491939840627145  0.5977155425165341  1.0000
  C   C2        1.0  0.5748041153043326  0.3026671132317662  0.6139194205975733  1.0000
  C   C3        1.0  0.562877283670816  0.17462217797317092  0.6233898962597102  1.0000
  C   C4        1.0  0.48615505630186934  0.12517124341344643  0.6383594698358113  1.0000
  C   C5        1.0  0.4280237045613012  0.20785220758584444  0.6557960324340191  1.0000
  C   C6        1.0  0.3499637052104619  0.16280706324755356  0.6775471549539562  1.0000
  C   C7        1.0  0.2886433035089896  0.24827207467722467  0.6420532460452326  1.0000
  C   C8        1.0  0.2143585984960647  0.20897211878062105  0.6622159664630693  1.0000
  C   C9        1.0  0.1520601314311895  0.2969735424100397  0.6246467924925614  1.0000
  N   N2        1.0  0.10198557128620002  0.36771816058198237  0.594444728041507  1.0000
  C   C10       1.0  0.20076273687180882  0.08408758777957348  0.7189266861120343  1.0000
  C   C11       1.0  0.26118444771193267  0.9989405487019801  0.7558289744335414  1.0000
  C   C12       1.0  0.3353654038146083  0.03775087794804177  0.735796025740908  1.0000
  O   O1        1.0  0.44140933675607513  0.34164752718802704  0.654447982060913  1.0000
  C   C13       1.0  0.5091494582923102  0.39901849671993417  0.6058179216051474  1.0000
  H   H1        1.0  0.6097893844240941  0.1051556367616473  0.6213161330734376  1.0000
  H   H2        1.0  0.4784801891195062  0.021513668516990547  0.6364177592151781  1.0000
  H   H3        1.0  0.2985582878252456  0.3450922493888444  0.5975904439711839  1.0000
  H   H4        1.0  0.1435403118261619  0.052801483587462394  0.7350784639587333  1.0000
  H   H5        1.0  0.2505328779519412  0.9027794194519827  0.8007526342447902  1.0000
  H   H6        1.0  0.38087969710364034  0.9705243962608892  0.768241294130315  1.0000
  H   H7        1.0  0.4996945147623985  0.4349216251857939  0.5022819166288546  1.0000
  H   H8        1.0  0.5220461786059685  0.48342664604449004  0.6623646736012407  1.0000
  C   C14       1.0  0.9063880057023935  0.9957707236915477  0.5897346939155861  1.0000
  C   C15       1.0  0.8891664228638991  0.006163459831902918  0.4558377997111196  1.0000
  C   C16       1.0  0.8804901812717921  0.8943003088326855  0.3877860187376936  1.0000
  C   C17       1.0  0.8892671874318131  0.7709066579079578  0.45543574040567925  1.0000
  C   C18       1.0  0.9064954912419225  0.7585581791853765  0.5894175509964135  1.0000
  C   C19       1.0  0.9149511711644255  0.8715112152999193  0.65574209041972  1.0000
  C   C20       1.0  0.8622720098312117  0.9063401669564712  0.24613925731931308  1.0000
  C   C21       1.0  0.8979814770426364  0.8236045643883922  0.16181574175528146  1.0000
  C   C22       1.0  0.880808797975341  0.8350625149380113  0.02850261097582374  1.0000
  C   C23       1.0  0.8277503492858689  0.9291643787418458  0.9777044318857313  1.0000
  C   C24       1.0  0.7919033653682808  0.011886573531421307  0.060740639934640406  1.0000
  C   C25       1.0  0.8090222381272043  0.0006724953546077828  0.19407337508650468  1.0000
  C   C26       1.0  0.8100989097282396  0.9408352955840917  0.8404468092474326  1.0000
  C   C27       1.0  0.7953160193513605  0.9506095759573414  0.7254955343229392  1.0000
  C   C28       1.0  0.7780054293052769  0.9620551275329569  0.5908887641590801  1.0000
  C   C29       1.0  0.7632250199764443  0.9718279161421515  0.47595605796013674  1.0000
  H   H9        1.0  0.9129733534532908  0.3192497119162103  0.6412503008682164  1.0000
  H   H10       1.0  0.8834769889819892  0.1014788185336708  0.4037883741896533  1.0000
  H   H11       1.0  0.88162988069261  0.6843677229044081  0.40383231903844696  1.0000
  H   H12       1.0  0.9282324127515343  0.8627792473621678  0.7590210024528032  1.0000
  H   H13       1.0  0.9385456686205361  0.5279671490402746  0.8424677748273195  1.0000
  H   H14       1.0  0.9399000108534985  0.7511841564137617  0.1987086128336777  1.0000
  H   H15       1.0  0.9090463915770655  0.770756289797655  0.9650346828978447  1.0000
  H   H16       1.0  0.7505851558360795  0.0848419230567361  0.02249290551056138  1.0000
  H   H17       1.0  0.7799049882419372  0.06463119869489709  0.25671662725610767  1.0000
  H   H18       1.0  0.7502466306769818  0.9804092472446422  0.37503545215421186  1.0000
  C   C30       1.0  0.9064671899961128  0.3770497422292429  0.20822535817983168  1.0000
  C   C31       1.0  0.8325127562366029  0.3314974637069701  0.20920917342607992  1.0000
  C   C32       1.0  0.7950187221504831  0.3085193637724233  0.09256025260141021  1.0000
  C   C33       1.0  0.8324614837370665  0.33172642740549296  0.9739029087715503  1.0000
  C   C34       1.0  0.9064163401065133  0.37727919297172074  0.9709268420117971  1.0000
  C   C35       1.0  0.9430058427867674  0.39968285644435775  0.08859756793555795  1.0000
  C   C36       1.0  0.7167812800651021  0.26032043345905076  0.09465582709163645  1.0000
  C   C37       1.0  0.6627644659911843  0.3116023610542529  0.0021406446113161337  1.0000
  C   C38       1.0  0.5892334111044563  0.26622227972254353  0.00437955096331355  1.0000
  C   C39       1.0  0.5686503847252573  0.16927511075784762  0.09859425665918642  1.0000
  C   C40       1.0  0.6219225092656454  0.1166244633762279  0.19195404792840698  1.0000
  C   C41       1.0  0.6955562358335009  0.1626391812423824  0.18926605690774423  1.0000
  O   O2        1.0  0.6041458936918936  0.018902630446068436  0.288373931914768  1.0000
  C   C42       1.0  0.5318018482081236  0.9631207935038267  0.3026327071861037  1.0000
  H   H19       1.0  0.9346570302472593  0.394348313425271  0.5353083151857521  1.0000
  H   H20       1.0  0.8035183537583138  0.3154685840607969  0.3007707754411506  1.0000
  H   H21       1.0  0.8041700256304145  0.3124976959331891  0.88387480846214  1.0000
  H   H22       1.0  5.8897314437533765e-05  0.4348236687841933  0.08707021274002691  1.0000
  H   H23       1.0  0.9345811262851919  0.39469877988639546  0.6423350548489313  1.0000
  H   H24       1.0  0.6771270106763402  0.3879806544023312  0.9291476297166015  1.0000
  H   H25       1.0  0.5479791300966185  0.30661480492525595  0.9329972461996112  1.0000
  H   H26       1.0  0.5113148371913917  0.13600913919762947  0.09800864396881104  1.0000
  H   H27       1.0  0.7364776195054697  0.12051258159642941  0.26046703130871496  1.0000
  H   H28       1.0  0.5162409710840357  0.9154131492482656  0.21340461647537023  1.0000
  H   H29       1.0  0.5337304744157974  0.888545586971115  0.3863839038561463  1.0000
  H   H30       1.0  0.48883135399114  0.03946218322533679  0.3218075208282185  1.0000
  Zn  Zn1       1.0  0.8237522311213852  0.38116263814853246  0.5875168238798008  1.0000
  Zn  Zn2       1.0  0.989124047966197  0.373166002119651  0.5916346170688365  1.0000
  C   C43       1.0  0.9064235174569704  0.37206180453472637  0.8267620536136144  1.0000
  C   C44       1.0  0.9064545677081424  0.3822683871964543  0.35238955908017844  1.0000
  C   C45       1.0  0.9064716413431256  0.6143737546383543  0.5843024537710779  1.0000
  C   C46       1.0  0.9064063871676289  0.1399548794177996  0.5948492274017629  1.0000
  O   O3        1.0  0.9692080734046442  0.38097946423791695  0.4023350652697746  1.0000
  O   O4        1.0  0.9691833941891698  0.3672804858653662  0.779941483754423  1.0000
  O   O5        1.0  0.9692214087413888  0.5629504913420609  0.5841536198121597  1.0000
  O   O6        1.0  0.9691700024300306  0.18530947075159032  0.5981228304330208  1.0000
  O   O7        1.0  0.8437062202242671  0.5690191722468638  0.5810286091035843  1.0000
  O   O8        1.0  0.8436682058931222  0.37335072717546725  0.7768164031547677  1.0000
  O   O9        1.0  0.8436928852565563  0.38704965981641926  0.3992084233638691  1.0000
  O   O10       1.0  0.8436548142710527  0.19137965706999616  0.5949962858941009  1.0000
