data_image0
_chemical_formula_structural       NC9NC3OCH8C16H10C16H10Zn2C4O8
_chemical_formula_sum              "N2 C49 O9 H28 Zn2"
_cell_length_a       17.728193572023454
_cell_length_b       10.29914801576943
_cell_length_c       10.299151387937775
_cell_angle_alpha    85.56202673548964
_cell_angle_beta     90.6938546660218
_cell_angle_gamma    88.46752555428026

_space_group_name_H-M_alt    "P 1"
_space_group_IT_number       1

loop_
  _space_group_symop_operation_xyz
  'x, y, z'

loop_
  _atom_site_type_symbol
  _atom_site_label
  _atom_site_symmetry_multiplicity
  _atom_site_fract_x
  _atom_site_fract_y
  _atom_site_fract_z
  _atom_site_occupancy
  N   N1        1.0  0.7109585055618788  0.38641265567277605  0.5846253076745231  1.0000
  C   C1        1.0  0.6503365362712621  0.3489874760182232  0.5976454298142244  1.0000
  C   C2        1.0  0.5748705360780505  0.30246299145858946  0.6138501180715965  1.0000
  C   C3        1.0  0.5629432506207588  0.17441945087380595  0.6233210672472476  1.0000
  C   C4        1.0  0.4862203059120889  0.12497072081499394  0.6382913892857951  1.0000
  C   C5        1.0  0.4280881186140532  0.20765425279054028  0.6557288236932259  1.0000
  C   C6        1.0  0.3500270769526814  0.1626123116409841  0.6774810337457031  1.0000
  C   C7        1.0  0.2887083761140067  0.24807209604436853  0.6419853501800217  1.0000
  C   C8        1.0  0.21442270490653992  0.20877510941975785  0.6621490787120159  1.0000
  C   C9        1.0  0.1521260381508532  0.2967710004080575  0.6245780263235481  1.0000
  N   N2        1.0  0.10205292528426771  0.367511170859542  0.5943744518020204  1.0000
  C   C10       1.0  0.2008241257130941  0.08389892994806925  0.7188626338354691  1.0000
  C   C11       1.0  0.2612440682010898  0.9987573253023827  0.7557667672313777  1.0000
  C   C12       1.0  0.3354259842796658  0.03756470438734261  0.7357328169130324  1.0000
  O   O1        1.0  0.4414738154071992  0.3414493738714848  0.6543807059190629  1.0000
  C   C13       1.0  0.509216267288646  0.39881318187590353  0.6057482140130062  1.0000
  H   H1        1.0  0.6098554507484581  0.10495260426862418  0.621247200375064  1.0000
  H   H2        1.0  0.478545531776208  0.021312859971659437  0.6363495815817364  1.0000
  H   H3        1.0  0.2986254910810771  0.34488572292166  0.5975203250140824  1.0000
  H   H4        1.0  0.1436009266766725  0.052615204354708345  0.7350152192535462  1.0000
  H   H5        1.0  0.2505903457060503  0.9026028117551337  0.8006926731769037  1.0000
  H   H6        1.0  0.38093872279629715  0.9703430007670739  0.7681797075306767  1.0000
  H   H7        1.0  0.4997662851885822  0.43470106306592915  0.502207032348734  1.0000
  H   H8        1.0  0.5221102778904197  0.4832296585830491  0.6622977932853831  1.0000
  C   C14       1.0  0.9064555854045907  0.9955630403438365  0.5896641821795003  1.0000
  C   C15       1.0  0.8892404188852078  0.005936058098497288  0.45576059327551444  1.0000
  C   C16       1.0  0.8805674383242503  0.8940628854234796  0.38770540978683177  1.0000
  C   C17       1.0  0.8893412027197435  0.7706791969651097  0.45535851386754467  1.0000
  C   C18       1.0  0.906563086141561  0.758350449133472  0.5893470234035252  1.0000
  C   C19       1.0  0.9150155878020707  0.8713132525608199  0.6556748789818843  1.0000
  C   C20       1.0  0.862356054575257  0.906081883873928  0.2460515661839744  1.0000
  C   C21       1.0  0.8980695625569152  0.823333863365815  0.16172383453560069  1.0000
  C   C22       1.0  0.8809032718348748  0.8347721814979203  0.02840403824416171  1.0000
  C   C23       1.0  0.8278472573865351  0.9288665644853115  0.9776033193001976  1.0000
  C   C24       1.0  0.7919962943862966  0.011600987639006854  0.0606436790694691  1.0000
  C   C25       1.0  0.8091087778605265  0.0004065447667538358  0.1939830807135119  1.0000
  C   C26       1.0  0.8102023951936204  0.9405172680226954  0.8403388339296023  1.0000
  C   C27       1.0  0.795425013264615  0.9502746200453025  0.7253818115660096  1.0000
  C   C28       1.0  0.7781208735547922  0.9617003486950249  0.5907683112096027  1.0000
  C   C29       1.0  0.7633459717840229  0.9714562116881088  0.4758298584999765  1.0000
  H   H9        1.0  0.9130384645353202  0.3190496150372757  0.6411823648566173  1.0000
  H   H10       1.0  0.8835534792039716  0.10124375171845967  0.40370856533921207  1.0000
  H   H11       1.0  0.8817063688087617  0.6841326625607546  0.40375251238520016  1.0000
  H   H12       1.0  0.9282918802791871  0.8625964940379967  0.7589589548485791  1.0000
  H   H13       1.0  0.9386011373913579  0.5277966845421618  0.842409899471229  1.0000
  H   H14       1.0  0.9399863284669223  0.7509188884362568  0.19861855021754593  1.0000
  H   H15       1.0  0.9091439068102052  0.7704566097248994  0.9649329368386002  1.0000
  H   H16       1.0  0.7506799176797992  0.08455070459469582  0.022394032300142364  1.0000
  H   H17       1.0  0.7799885261199998  0.06437447329344348  0.2566294649777965  1.0000
  H   H18       1.0  0.7503724185848717  0.9800226806726873  0.3749042067731949  1.0000
  C   C30       1.0  0.9065530515685252  0.37678587573947553  0.20813577139064798  1.0000
  C   C31       1.0  0.8337487293735566  0.4342620513646671  0.20138982236439684  1.0000
  C   C32       1.0  0.7967904483994035  0.46357978994627214  0.08081233732871995  1.0000
  C   C33       1.0  0.8336175049610766  0.43464601923410595  0.9660740586509382  1.0000
  C   C34       1.0  0.906465617121609  0.3771275795396605  0.9708754269445539  1.0000
  C   C35       1.0  0.9424856608154656  0.3485535137968412  0.09232157672420715  1.0000
  C   C36       1.0  0.7197722928354268  0.5243829338946457  0.0747213476985018  1.0000
  C   C37       1.0  0.7006185009590264  0.6251293127536133  0.9788972469703059  1.0000
  C   C38       1.0  0.6281165699985775  0.6823186176623586  0.973292385663937  1.0000
  C   C39       1.0  0.5738173478855736  0.6396160286823622  0.06318583592460159  1.0000
  C   C40       1.0  0.5922872696171599  0.5394610866696019  0.15883056224072023  1.0000
  C   C41       1.0  0.6647675380109156  0.4821852285351016  0.16468448523108736  1.0000
  C   C42       1.0  0.49918701486820943  0.698538059753921  0.05728786903082761  1.0000
  C   C43       1.0  0.4366851640404563  0.7478843737196084  0.052348319888588346  1.0000
  C   C44       1.0  0.363496146657077  0.8056684610877369  0.04656415772403899  1.0000
  C   C45       1.0  0.3010043962846544  0.8550070383407489  0.04162551324056296  1.0000
  H   H19       1.0  0.9345406567405253  0.3546162824892347  0.5382106223806125  1.0000
  H   H20       1.0  0.8060239538788564  0.45799823399096895  0.28999316635375383  1.0000
  H   H21       1.0  0.80498545232211  0.45541042567732126  0.8729793020041936  1.0000
  H   H22       1.0  0.9986405918843939  0.30421715243900405  0.09680940503392721  1.0000
  H   H23       1.0  0.04377290744365303  0.2678153074552565  0.7726992259725431  1.0000
  H   H24       1.0  0.7419946113299593  0.6608347791898859  0.9093664424665495  1.0000
  H   H25       1.0  0.6144799623808415  0.7600333302558939  0.8990677085599388  1.0000
  H   H26       1.0  0.5506186733311041  0.5054110903236491  0.2286847957313325  1.0000
  H   H27       1.0  0.6775122281254446  0.4037519216243519  0.23849423088211985  1.0000
  H   H28       1.0  0.2461314798732803  0.8983303203722042  0.03728898303382322  1.0000
  Zn  Zn1       1.0  0.8238199171035824  0.38095462818520387  0.587446201252618  1.0000
  Zn  Zn2       1.0  0.9891915366243612  0.37295859856496816  0.591564200326848  1.0000
  C   C46       1.0  0.9064797388435998  0.371889027126592  0.8267033929884933  1.0000
  C   C47       1.0  0.9065335209536447  0.3820257511118694  0.35230718034471553  1.0000
  C   C48       1.0  0.9065394813574567  0.6141652713093817  0.5842316704288752  1.0000
  C   C49       1.0  0.9064737217821477  0.13974794926413758  0.5947789713868055  1.0000
  O   O2        1.0  0.9692846332689723  0.3807441834005212  0.40225518375546265  1.0000
  O   O3        1.0  0.9692418592104926  0.3671008134051814  0.7798804821515786  1.0000
  O   O4        1.0  0.969289255887821  0.5627419860949889  0.5840828290284206  1.0000
  O   O5        1.0  0.9692371801739824  0.18510302268653533  0.5980527380946652  1.0000
  O   O6        1.0  0.8437742171207445  0.5688102067936998  0.5809576620726986  1.0000
  O   O7        1.0  0.8437268206678393  0.3731705944988979  0.776755245301282  1.0000
  O   O8        1.0  0.843769594949096  0.3868139185327124  0.3991283855208525  1.0000
  O   O9        1.0  0.8437221418385508  0.19117274857296795  0.5949260372319083  1.0000
