data_image0
_chemical_formula_structural       NC9NC3OCH8C12NCOCH13C12SCH12Zn2C4O8
_chemical_formula_sum              "N3 C44 O10 H33 S1 Zn2"
_cell_length_a       17.728193572023454
_cell_length_b       10.299155265289647
_cell_length_c       10.299780138516091
_cell_angle_alpha    85.56043235920357
_cell_angle_beta     90.6970768647591
_cell_angle_gamma    88.43175330785003

_space_group_name_H-M_alt    "P 1"
_space_group_IT_number       1

loop_
  _space_group_symop_operation_xyz
  'x, y, z'

loop_
  _atom_site_type_symbol
  _atom_site_label
  _atom_site_symmetry_multiplicity
  _atom_site_fract_x
  _atom_site_fract_y
  _atom_site_fract_z
  _atom_site_occupancy
  N   N1        1.0  0.7104069688251785  0.3866384391171773  0.584851764822877  1.0000
  C   C1        1.0  0.6497990017997678  0.3492110015206922  0.597866996241091  1.0000
  C   C2        1.0  0.574350408954123  0.3026837071528612  0.6140656037608079  1.0000
  C   C3        1.0  0.5624697958158748  0.17463778468639224  0.6235215224061197  1.0000
  C   C4        1.0  0.485765273319028  0.1251864114131398  0.6384854908420743  1.0000
  C   C5        1.0  0.4276037761737955  0.20786789342416023  0.6559314881041078  1.0000
  C   C6        1.0  0.3495598004840351  0.16282230824183386  0.6776775169053955  1.0000
  C   C7        1.0  0.2882089229123177  0.24828812676255207  0.6421932809712871  1.0000
  C   C8        1.0  0.2139381826875247  0.20898778022577136  0.6623515590968554  1.0000
  C   C9        1.0  0.15160834836800774  0.29699004008905816  0.6247923436578089  1.0000
  N   N2        1.0  0.1015085719905822  0.36773533051245866  0.5945982849010396  1.0000
  C   C10       1.0  0.2003867915080149  0.08410204526287468  0.7190481514363887  1.0000
  C   C11       1.0  0.2608388451277969  0.998954194273154  0.7559408050562575  1.0000
  C   C12       1.0  0.335006011978875  0.03776490990926207  0.7359122431305738  1.0000
  O   O1        1.0  0.44094100489933463  0.34166420115492735  0.6545986611681276  1.0000
  C   C13       1.0  0.5086609858756745  0.39903583844897805  0.6059750572009606  1.0000
  H   H1        1.0  0.6094070631351761  0.10517074452588937  0.6214398510962296  1.0000
  H   H2        1.0  0.4781279447964279  0.021528086133077107  0.6365319814743768  1.0000
  H   H3        1.0  0.29808943663865645  0.3451092373992486  0.5977414307472304  1.0000
  H   H4        1.0  0.1431754823342082  0.052815629577351864  0.7351963929900973  1.0000
  H   H5        1.0  0.2502215015529693  0.9027921315909576  0.8008535886980903  1.0000
  H   H6        1.0  0.38054421958682627  0.9705377703801495  0.7683499095042605  1.0000
  H   H7        1.0  0.4991943733828119  0.43493975609458935  0.5024429843145883  1.0000
  H   H8        1.0  0.5215264354175635  0.4834443196391791  0.6625314984148678  1.0000
  C   C14       1.0  0.9060456749554675  0.9957851896067964  0.5898459174801334  1.0000
  C   C15       1.0  0.8931653043126194  0.0060811495471082555  0.45460637206537147  1.0000
  C   C16       1.0  0.8865616064580074  0.8941672437565583  0.38591753433451115  1.0000
  C   C17       1.0  0.8929848873310361  0.7708300392044423  0.4542941062559547  1.0000
  C   C18       1.0  0.9058771442368101  0.7585782870857272  0.5896155344418963  1.0000
  C   C19       1.0  0.9123315259086737  0.8715766091696512  0.6565584284614487  1.0000
  C   C20       1.0  0.8729366611922277  0.9060327504461128  0.2428504485891969  1.0000
  C   C21       1.0  0.9112150805507943  0.9982774488187273  0.16239077657130374  1.0000
  C   C22       1.0  0.89839931891982  0.009312494937394833  0.027755270609592264  1.0000
  C   C23       1.0  0.8475181382532025  0.9274183824726543  0.9707394542909569  1.0000
  C   C24       1.0  0.8083179164277872  0.8370345096240123  0.05110799824788348  1.0000
  C   C25       1.0  0.8211611667849943  0.8257421080893976  0.18570685561644273  1.0000
  N   N3        1.0  0.8322740787066712  0.9383689615504224  0.8328052644084551  1.0000
  C   C26       1.0  0.8873845680991659  0.972622393894665  0.7359657536339368  1.0000
  O   O2        1.0  0.9566135860136703  0.9718161756588812  0.7655480359537825  1.0000
  C   C27       1.0  0.8633205924565684  0.0002048146166870879  0.5968329807404471  1.0000
  H   H9        1.0  0.9110234413326905  0.3192999765755491  0.6418597211963488  1.0000
  H   H10       1.0  0.8871987445805233  0.10140437405384706  0.40265058913323126  1.0000
  H   H11       1.0  0.8889295554119379  0.6842165478555879  0.40156718159555105  1.0000
  H   H12       1.0  0.9222689654849373  0.862920132124231  0.7608711339004914  1.0000
  H   H13       1.0  0.9306624998146725  0.5281485614062216  0.8449081012000996  1.0000
  H   H14       1.0  0.9515092385170159  0.06138621306898506  0.20348528448007852  1.0000
  H   H15       1.0  0.9273550289309093  0.08335682307271397  0.9688993603769456  1.0000
  H   H16       1.0  0.7679514048046058  0.7746331211403459  0.009144693906518064  1.0000
  H   H17       1.0  0.7897804744753866  0.7554314995271588  0.2453352401064841  1.0000
  H   H18       1.0  0.7791238109290748  0.9120631429623847  0.8004088065610349  1.0000
  H   H19       1.0  0.8088459649958285  0.05628252180803717  0.59102201427884  1.0000
  H   H20       1.0  0.8563409765567424  0.9069235761005787  0.5514371976216488  1.0000
  H   H21       1.0  0.9062859300475233  0.05820848053135941  0.5425111396722544  1.0000
  C   C28       1.0  0.9059917540947376  0.37706894220611  0.20837940411807798  1.0000
  C   C29       1.0  0.8342507798361684  0.3225205232375048  0.2101031887909588  1.0000
  C   C30       1.0  0.7978691771408617  0.294996124276774  0.09382894902132466  1.0000
  C   C31       1.0  0.8341889470918636  0.32274896757897586  0.9747976845353388  1.0000
  C   C32       1.0  0.9059310471830617  0.37729450843943635  0.971082090459142  1.0000
  C   C33       1.0  0.9414306814426354  0.4041498374987793  0.08838603332745909  1.0000
  C   C34       1.0  0.7219722044437187  0.2373035480278698  0.09671534756833955  1.0000
  C   C35       1.0  0.6660726656330629  0.28166942472219736  0.004353464211111602  1.0000
  C   C36       1.0  0.5946549838794711  0.22733827107306737  0.007307072133973858  1.0000
  C   C37       1.0  0.5780951035842246  0.12832140922054003  0.10248671342874771  1.0000
  C   C38       1.0  0.6333231866182131  0.08318899351570574  0.19442645008657622  1.0000
  C   C39       1.0  0.7047875944525624  0.13734444597239892  0.19183646595555182  1.0000
  S   S1        1.0  0.4864873841068262  0.058472360605686946  0.10582719260856477  1.0000
  C   C40       1.0  0.447762053348531  0.17456783859374703  0.21355722198005078  1.0000
  H   H22       1.0  0.9333393647893342  0.3978063290696683  0.5351798612861955  1.0000
  H   H23       1.0  0.8060524051109609  0.302959556510221  0.30195601628771085  1.0000
  H   H24       1.0  0.8068283588154272  0.3000681940087231  0.8850507474412508  1.0000
  H   H25       1.0  0.996775964900089  0.44623082863980934  0.08628783937144147  1.0000
  H   H26       1.0  0.9332513417797184  0.3981380717529628  0.6422080018477674  1.0000
  H   H27       1.0  0.6772770522355922  0.3595015407072242  0.9309311924095449  1.0000
  H   H28       1.0  0.5521270544099587  0.26272953306901115  0.9359060587706818  1.0000
  H   H29       1.0  0.620965226462504  0.006108659796631999  0.2679446322303034  1.0000
  H   H30       1.0  0.7469099514036609  0.0999216451981535  0.2631271652119689  1.0000
  H   H31       1.0  0.47967467021571697  0.16699485291656924  0.3073684048273364  1.0000
  H   H32       1.0  0.3878798323403402  0.15233149773608123  0.23284471402805207  1.0000
  H   H33       1.0  0.4506568611235413  0.27515744301513445  0.16700820328110533  1.0000
  Zn  Zn1       1.0  0.8232704548720601  0.3811799418703157  0.5876719003984214  1.0000
  Zn  Zn2       1.0  0.9886451130359566  0.3731832262782375  0.5917887897057379  1.0000
  C   C41       1.0  0.9059419743942001  0.372077826383562  0.8269164493266912  1.0000
  C   C42       1.0  0.9059753990276741  0.3822868932384951  0.3525444126994295  1.0000
  C   C43       1.0  0.905905506782413  0.6143927851032454  0.5844840641265878  1.0000
  C   C44       1.0  0.9060118105479514  0.13997037683201263  0.5949768662014248  1.0000
  O   O3        1.0  0.9687287322857678  0.38099770715370385  0.4024898462909594  1.0000
  O   O4        1.0  0.9687041804196573  0.36729671044854095  0.7800952659281919  1.0000
  O   O5        1.0  0.968673886235527  0.5629691454143009  0.5843293781605423  1.0000
  O   O6        1.0  0.9687589700444277  0.18532528417890082  0.5982556352808093  1.0000
  O   O7        1.0  0.8431565414293348  0.5690378866999508  0.5812050534116264  1.0000
  O   O8        1.0  0.8431868352707206  0.37336701215128754  0.7769708714656611  1.0000
  O   O9        1.0  0.843211387321313  0.38706796313244607  0.39936389051465926  1.0000
  O   O10       1.0  0.8432416250711892  0.1913955308969839  0.595129776870585  1.0000
