data_image0
_chemical_formula_structural       NC9NC3OCH8C12OCH12C15H12Zn2C4O8
_chemical_formula_sum              "N2 C45 O10 H32 Zn2"
_cell_length_a       17.728193572023454
_cell_length_b       10.29979075500242
_cell_length_c       10.299157797200024
_cell_angle_alpha    85.53980185155037
_cell_angle_beta     90.72660703466438
_cell_angle_gamma    88.43583692371088

_space_group_name_H-M_alt    "P 1"
_space_group_IT_number       1

loop_
  _space_group_symop_operation_xyz
  'x, y, z'

loop_
  _atom_site_type_symbol
  _atom_site_label
  _atom_site_symmetry_multiplicity
  _atom_site_fract_x
  _atom_site_fract_y
  _atom_site_fract_z
  _atom_site_occupancy
  N   N1        1.0  0.7100295174852983  0.38735582748941355  0.5849841751569098  1.0000
  C   C1        1.0  0.6494239552211544  0.34992376844603235  0.5979930022143924  1.0000
  C   C2        1.0  0.5739783576682919  0.3033907179158457  0.6141836503887794  1.0000
  C   C3        1.0  0.5620951316841533  0.17534951628234707  0.6236137165643527  1.0000
  C   C4        1.0  0.4853930964660789  0.12589334385145579  0.6385689722397612  1.0000
  C   C5        1.0  0.4272405659277401  0.20855798977128703  0.656034310102934  1.0000
  C   C6        1.0  0.3492013641926196  0.1635032821593394  0.677773314541054  1.0000
  C   C7        1.0  0.28784321382664757  0.2489830280781158  0.6423030551558431  1.0000
  C   C8        1.0  0.21357700518164793  0.20967402841954197  0.6624553381078357  1.0000
  C   C9        1.0  0.1512393663813585  0.2976912272491956  0.6249103991525182  1.0000
  N   N2        1.0  0.1011333159301673  0.3684485272060176  0.59472781729546  1.0000
  C   C10       1.0  0.2000377390034807  0.08476510543392335  0.7191320520689071  1.0000
  C   C11       1.0  0.2604975144796502  0.9996024770582974  0.7560109542819484  1.0000
  C   C12       1.0  0.3346601686768245  0.03842180909714865  0.7359882991892228  1.0000
  O   O1        1.0  0.44058316679106263  0.34234436062520857  0.6547294573999587  1.0000
  C   C13       1.0  0.5082905993067699  0.39973986774688064  0.606112447716906  1.0000
  H   H1        1.0  0.6090287524972734  0.10588925911809977  0.621517209274153  1.0000
  H   H2        1.0  0.4777506829411658  0.022244465275765846  0.6365934542741298  1.0000
  H   H3        1.0  0.2977141739284497  0.34582240638647743  0.5978665604144644  1.0000
  H   H4        1.0  0.1428300684270856  0.05347174227032214  0.7352755322554851  1.0000
  H   H5        1.0  0.24988989548648782  0.903421824073905  0.8009085727818603  1.0000
  H   H6        1.0  0.3802054959083895  0.9711810647722317  0.7684154803599579  1.0000
  H   H7        1.0  0.4987935390854046  0.43570151941213187  0.502576284917398  1.0000
  H   H8        1.0  0.5211771784395289  0.4841084784034706  0.662692988534318  1.0000
  C   C14       1.0  0.9056528704093936  0.9965309618094208  0.5898967316311357  1.0000
  C   C15       1.0  0.8838379601654806  0.9863806912361421  0.720799470894071  1.0000
  C   C16       1.0  0.8727242849290995  0.8641040919338562  0.7870942389093829  1.0000
  C   C17       1.0  0.8837023652491812  0.7511049725515658  0.7207303036249666  1.0000
  C   C18       1.0  0.905517241778993  0.7592630302614458  0.5898266309495295  1.0000
  C   C19       1.0  0.9163721001595518  0.8824227739273993  0.5251435320120903  1.0000
  C   C20       1.0  0.8496499435962834  0.8544195614386367  0.9255833581413468  1.0000
  C   C21       1.0  0.7945968254051529  0.7662014892004775  0.9692801593161133  1.0000
  C   C22       1.0  0.7729477950060197  0.7573570959565469  0.09948796575146224  1.0000
  C   C23       1.0  0.805864062856673  0.8360853182343837  0.18766160090597073  1.0000
  C   C24       1.0  0.8611185164525725  0.92490218958638  0.14584163742395717  1.0000
  C   C25       1.0  0.8825334742343556  0.9333968665964604  0.015101267146034214  1.0000
  O   O2        1.0  0.8960207876646101  0.005890050989648898  0.23058479308418234  1.0000
  C   C26       1.0  0.8798726754375029  0.007607749768872685  0.36552698431810227  1.0000
  H   H9        1.0  0.9139983170560463  0.3278485248101046  0.5400392850299618  1.0000
  H   H10       1.0  0.874438534168841  0.07384630308184903  0.7709971885793783  1.0000
  H   H11       1.0  0.8761909725313772  0.6565525639965037  0.7719142296179431  1.0000
  H   H12       1.0  0.9332019625300657  0.8894848542771647  0.42415761375715255  1.0000
  H   H13       1.0  0.9137921516923037  0.4349219788370514  0.5399297896232935  1.0000
  H   H14       1.0  0.7675893532469774  0.7052979878688488  0.9023936849286414  1.0000
  H   H15       1.0  0.7303343784619666  0.6894370147023386  0.1321072154637195  1.0000
  H   H16       1.0  0.7880029467870537  0.827169053498582  0.2878894518860752  1.0000
  H   H17       1.0  0.9257561394109897  0.0008608302053370043  0.9840101471345375  1.0000
  H   H18       1.0  0.8929204325573388  0.9104327232286242  0.4164777633372736  1.0000
  H   H19       1.0  0.9154939901773549  0.08051202627957843  0.40863135545014473  1.0000
  H   H20       1.0  0.8196318410840869  0.03542632101652954  0.37846257355062896  1.0000
  C   C27       1.0  0.9054975283205142  0.37800749225069175  0.20846748771117674  1.0000
  C   C28       1.0  0.8268969491727085  0.3638280062464372  0.20668602864602792  1.0000
  C   C29       1.0  0.787205740888633  0.35652179211998947  0.0886444900393748  1.0000
  C   C30       1.0  0.8271212110377785  0.3636084336045913  0.9714243393428204  1.0000
  C   C31       1.0  0.9056725339114963  0.37778650611940146  0.9712558883813385  1.0000
  C   C32       1.0  0.9444020042504518  0.38489748263822987  0.09029633230162015  1.0000
  C   C33       1.0  0.7041073256142647  0.3415362560692967  0.08780738680801248  1.0000
  C   C34       1.0  0.6701660527780077  0.25619837866955253  0.00586236209067148  1.0000
  C   C35       1.0  0.5919669459273426  0.24218941072862932  0.005106863449036547  1.0000
  C   C36       1.0  0.5463164255055276  0.31257657197736566  0.08679368670337562  1.0000
  C   C37       1.0  0.5798536756247761  0.39877952528700655  0.16775185669548454  1.0000
  C   C38       1.0  0.6580520208315183  0.41279272838971015  0.16865528672243668  1.0000
  C   C39       1.0  0.4620734573212142  0.29983406520232014  0.08363343687538527  1.0000
  C   C40       1.0  0.4281171020303663  0.3952427299814598  0.9853683736567076  1.0000
  C   C41       1.0  0.4002100322354227  0.4736964747798811  0.9045676793790927  1.0000
  H   H21       1.0  0.053912181801928805  0.40397291667271773  0.4191861280823692  1.0000
  H   H22       1.0  0.7965441163839468  0.35667053736397425  0.29746833012705265  1.0000
  H   H23       1.0  0.7966591762464087  0.35984305858024634  0.8800335859985955  1.0000
  H   H24       1.0  0.0049910176014675844  0.39582967780507516  0.09088213513503796  1.0000
  H   H25       1.0  0.9358891116941366  0.38319828117092936  0.6437188131328497  1.0000
  H   H26       1.0  0.7041870923032233  0.19918828528984522  0.9433426814029606  1.0000
  H   H27       1.0  0.5669936132533752  0.17624124835169397  0.9409314366459696  1.0000
  H   H28       1.0  0.5453919829827413  0.4555017438655806  0.2299155870581604  1.0000
  H   H29       1.0  0.68240945388563  0.4808778856471576  0.23117394440672334  1.0000
  H   H30       1.0  0.4470298262101797  0.20032148940874883  0.05982216008357777  1.0000
  H   H31       1.0  0.4380483212367992  0.316440401167146  0.18025486138929891  1.0000
  H   H32       1.0  0.3757311629123996  0.5425751017614644  0.8336325674006351  1.0000
  Zn  Zn1       1.0  0.8228936392107129  0.38189611650154554  0.5878034803352246  1.0000
  Zn  Zn2       1.0  0.9882692241274482  0.373897631332875  0.5919191514649236  1.0000
  C   C42       1.0  0.9056387113693161  0.3726546711082539  0.8270730069138976  1.0000
  C   C43       1.0  0.9055259576029114  0.38314062797475  0.3526497971536564  1.0000
  C   C44       1.0  0.9055377877425229  0.6150921455125982  0.5846643071934585  1.0000
  C   C45       1.0  0.9056268250919659  0.14070159596839282  0.5950585648562374  1.0000
  O   O3        1.0  0.9682946723512413  0.3818223060054575  0.40260057358931745  1.0000
  O   O4        1.0  0.9683862391306833  0.3679013482872111  0.7802455558546775  1.0000
  O   O5        1.0  0.9683038963119129  0.5636727154362726  0.5844987945694915  1.0000
  O   O6        1.0  0.9683769587145291  0.18605095090422008  0.5983472360881221  1.0000
  O   O7        1.0  0.8427858481890593  0.5697427996611064  0.5813753943007178  1.0000
  O   O8        1.0  0.8428681907109954  0.3739729928449642  0.777122086192453  1.0000
  O   O9        1.0  0.8427766236314851  0.38789390575689575  0.3994755424282217  1.0000
  O   O10       1.0  0.8428589100156828  0.19212254133874085  0.5952223023020995  1.0000
