data_image0
_chemical_formula_structural       NC9NC3OCH8C12OCH12C13OH12Zn2C4O8
_chemical_formula_sum              "N2 C43 O11 H32 Zn2"
_cell_length_a       17.728193572023454
_cell_length_b       10.29979075500242
_cell_length_c       10.299153481560891
_cell_angle_alpha    85.5777986716743
_cell_angle_beta     90.72181207759093
_cell_angle_gamma    88.43583692371088

_space_group_name_H-M_alt    "P 1"
_space_group_IT_number       1

loop_
  _space_group_symop_operation_xyz
  'x, y, z'

loop_
  _atom_site_type_symbol
  _atom_site_label
  _atom_site_symmetry_multiplicity
  _atom_site_fract_x
  _atom_site_fract_y
  _atom_site_fract_z
  _atom_site_occupancy
  N   N1        1.0  0.7101138475264851  0.38641055971053806  0.5850586192198315  1.0000
  C   C1        1.0  0.6495075099813142  0.3489871909056983  0.5980667618821838  1.0000
  C   C2        1.0  0.5740609475219091  0.30246495615422586  0.6142565582656505  1.0000
  C   C3        1.0  0.5621771595384945  0.1744300540528967  0.6236861283249069  1.0000
  C   C4        1.0  0.4854742330389907  0.124983872126045  0.638640597203465  1.0000
  C   C5        1.0  0.4273206616270194  0.20766018535082043  0.6561050162142199  1.0000
  C   C6        1.0  0.349280164322544  0.1626199999654654  0.6778428769620819  1.0000
  C   C7        1.0  0.28792412786115323  0.2480760508182811  0.642374483669232  1.0000
  C   C8        1.0  0.21365671820990234  0.2087805134146241  0.662525706408474  1.0000
  C   C9        1.0  0.15132131695790943  0.2967726312378103  0.6249827426945276  1.0000
  N   N2        1.0  0.1012170652840368  0.3675097684362998  0.5948017487448152  1.0000
  C   C10       1.0  0.20011407429592562  0.08390945196424693  0.7191994386044047  1.0000
  C   C11       1.0  0.2605716519172811  0.9987714596650312  0.7560764006163059  1.0000
  C   C12       1.0  0.3347354993953354  0.037577416043784284  0.7360547989166017  1.0000
  O   O1        1.0  0.44066334025504283  0.3414456845288254  0.6548002321596196  1.0000
  C   C13       1.0  0.5083736701761056  0.3988087142096435  0.606185780220208  1.0000
  H   H1        1.0  0.6091109052961861  0.10496839636665145  0.6215897313320744  1.0000
  H   H2        1.0  0.4778319372481046  0.02133367385240792  0.6366651831699457  1.0000
  H   H3        1.0  0.2977977362241027  0.34488574437969666  0.5979403267343659  1.0000
  H   H4        1.0  0.1429054416240364  0.05262687306990377  0.7353420694815729  1.0000
  H   H5        1.0  0.24996135718159282  0.9026207994703807  0.8009716570499581  1.0000
  H   H6        1.0  0.3802788940792385  0.9703583339285629  0.7684802740914933  1.0000
  H   H7        1.0  0.49888278035136735  0.43470120099565857  0.5026550644641061  1.0000
  H   H8        1.0  0.5212568773046412  0.4832151221552867  0.6627633443321539  1.0000
  C   C14       1.0  0.9057369076792325  0.9955889757474456  0.5899709172441823  1.0000
  C   C15       1.0  0.88391419608554  0.9855261516460858  0.7208667697065694  1.0000
  C   C16       1.0  0.872796569910647  0.8632938389920568  0.7871580499503705  1.0000
  C   C17       1.0  0.8837786052913703  0.7502503867559551  0.7207976060763586  1.0000
  C   C18       1.0  0.9056012832265898  0.7583209973703722  0.5899008202505767  1.0000
  C   C19       1.0  0.9164599964957669  0.8814375310253914  0.5252211242946467  1.0000
  C   C20       1.0  0.8497139751060862  0.8537018228700598  0.9256398832619053  1.0000
  C   C21       1.0  0.7946582527369825  0.7655129412440937  0.9693343855454792  1.0000
  C   C22       1.0  0.7730014624036586  0.7567555302386797  0.09953534174073553  1.0000
  C   C23       1.0  0.8059124754111124  0.8355426548233281  0.1877043380752902  1.0000
  C   C24       1.0  0.8611694213319608  0.9243315893400612  0.14588657474393074  1.0000
  C   C25       1.0  0.8825921707868946  0.9327389283449743  0.01515308272431426  1.0000
  O   O2        1.0  0.8960666421454928  0.005376061399635201  0.23062527206192296  1.0000
  C   C26       1.0  0.8799104878312621  0.007183905110911715  0.365560363979497  1.0000
  H   H9        1.0  0.914085325656984  0.3268732326627972  0.5401160936461056  1.0000
  H   H10       1.0  0.8745117784788241  0.07302529688715698  0.7710618464870977  1.0000
  H   H11       1.0  0.8762641621888912  0.655732170409339  0.7719788392800817  1.0000
  H   H12       1.0  0.9332958772771677  0.8884321501263348  0.4242405189146048  1.0000
  H   H13       1.0  0.9138791668187882  0.433946613543933  0.5400066039999969  1.0000
  H   H14       1.0  0.767654766780969  0.7045647579887925  0.9024514300592243  1.0000
  H   H15       1.0  0.7303861018653243  0.6888572395010035  0.1321528753524126  1.0000
  H   H16       1.0  0.7880453861087896  0.8266933449274755  0.28792691606246124  1.0000
  H   H17       1.0  0.9258166888865736  0.00018212226814151578  0.9840635984184074  1.0000
  H   H18       1.0  0.892955208461175  0.9100429150307999  0.41650846247529005  1.0000
  H   H19       1.0  0.9155292336999191  0.0801169764749643  0.40866246738812584  1.0000
  H   H20       1.0  0.8196688825615398  0.03501111767231713  0.37849527266993954  1.0000
  C   C27       1.0  0.9056042974519232  0.3768107014240858  0.2085617403384119  1.0000
  C   C28       1.0  0.8275859911331932  0.35620098044191173  0.20729176770687263  1.0000
  C   C29       1.0  0.7881659226432869  0.34590757080314605  0.08948370232988068  1.0000
  C   C30       1.0  0.827763983491499  0.35650967600906025  0.9719882064969134  1.0000
  C   C31       1.0  0.9057338867653704  0.37709930206241915  0.9713100279013256  1.0000
  C   C32       1.0  0.9441987739013677  0.38712598444780455  0.09011893640779967  1.0000
  C   C33       1.0  0.7056813299182068  0.3241311044953272  0.08911409960974925  1.0000
  C   C34       1.0  0.6579410139778854  0.3916746815726182  0.9952514660510348  1.0000
  C   C35       1.0  0.5803181351735  0.3712256843412809  0.9949815988881241  1.0000
  C   C36       1.0  0.5491292254288773  0.2820211582049328  0.08767255974911259  1.0000
  C   C37       1.0  0.5963630824407751  0.21559833104948134  0.18244101090669052  1.0000
  C   C38       1.0  0.6739895465662192  0.23601750777307595  0.18288911963847077  1.0000
  C   C39       1.0  0.46550366819325295  0.26277595320542146  0.0895077259031909  1.0000
  O   O3        1.0  0.43159244644967515  0.35200239164618563  0.1681624524738774  1.0000
  H   H21       1.0  0.05277159442293411  0.4165468475656653  0.41818477842364277  1.0000
  H   H22       1.0  0.7971623566105747  0.34990759142639716  0.29801011631213603  1.0000
  H   H23       1.0  0.7978242560990422  0.3469043542355521  0.8810641980839695  1.0000
  H   H24       1.0  0.004338884400583165  0.403011044480869  0.09031164717925733  1.0000
  H   H25       1.0  0.9357138547202545  0.38510519518955566  0.6435668680001143  1.0000
  H   H26       1.0  0.6804869617889145  0.46184095584859786  0.9232492330307003  1.0000
  H   H27       1.0  0.5445034104556078  0.4252365410479386  0.9226039813051004  1.0000
  H   H28       1.0  0.5731208698309108  0.14767209026881356  0.25586558622751343  1.0000
  H   H29       1.0  0.7093507594151669  0.18182806861297895  0.25577867037106383  1.0000
  H   H30       1.0  0.45354436355375766  0.1615670073580786  0.12803758246515695  1.0000
  H   H31       1.0  0.44161451712992283  0.27729565292087455  0.9887805719470766  1.0000
  H   H32       1.0  0.3767366300993071  0.3352998964056697  0.16609419876417042  1.0000
  Zn  Zn1       1.0  0.8229778012310777  0.38095273209266267  0.5878777760743408  1.0000
  Zn  Zn2       1.0  0.9883531408680714  0.37295699630052837  0.5919932306783475  1.0000
  C   C40       1.0  0.9057086137547872  0.3718711250347244  0.8271347146696291  1.0000
  C   C41       1.0  0.9056241339681618  0.38204015472212904  0.35273646434140216  1.0000
  C   C42       1.0  0.9056221368467321  0.6141466640535118  0.5847387680846521  1.0000
  C   C43       1.0  0.9057105547344269  0.1397630581467426  0.5951324789049448  1.0000
  O   O4        1.0  0.9683898718232583  0.38075520118495265  0.4026846128638777  1.0000
  O   O5        1.0  0.9684589322700154  0.36708652024504507  0.7803097272052695  1.0000
  O   O6        1.0  0.9683882552801012  0.5627271234104014  0.5845732641683135  1.0000
  O   O7        1.0  0.9684604923635773  0.18511461000142826  0.5984209771196494  1.0000
  O   O8        1.0  0.8428703933010833  0.5687951211217259  0.5814500282218049  1.0000
  O   O9        1.0  0.8429410699982988  0.3731560782429322  0.7771864218689613  1.0000
  O   O10       1.0  0.8428720093445334  0.3868247133334026  0.3995597461108482  1.0000
  O   O11       1.0  0.8429426298999589  0.19118411289800985  0.5952962077365707  1.0000
