data_image0
_chemical_formula_structural       NC9NC3OCH8C13OH12C12ClH9Zn2C4O8
_chemical_formula_sum              "N2 C42 O10 H29 Cl1 Zn2"
_cell_length_a       17.728193572023454
_cell_length_b       10.299150109392551
_cell_length_c       10.299771906710086
_cell_angle_alpha    85.52403423523229
_cell_angle_beta     90.7132806509017
_cell_angle_gamma    88.43520969070386

_space_group_name_H-M_alt    "P 1"
_space_group_IT_number       1

loop_
  _space_group_symop_operation_xyz
  'x, y, z'

loop_
  _atom_site_type_symbol
  _atom_site_label
  _atom_site_symmetry_multiplicity
  _atom_site_fract_x
  _atom_site_fract_y
  _atom_site_fract_z
  _atom_site_occupancy
  N   N1        1.0  0.7102088081604238  0.38746352153212116  0.5846904743521315  1.0000
  C   C1        1.0  0.6496018123369014  0.3500283966519975  0.5977088125229797  1.0000
  C   C2        1.0  0.5741544301170642  0.3034915349976337  0.6139112830880677  1.0000
  C   C3        1.0  0.5622710430007015  0.17543962312658312  0.6233760941382882  1.0000
  C   C4        1.0  0.485567415622644  0.12597938583077606  0.6383440568718137  1.0000
  C   C5        1.0  0.4274118038040455  0.20865109625943679  0.6557854781772394  1.0000
  C   C6        1.0  0.3493700541933398  0.1635927371800221  0.6775355471872009  1.0000
  C   C7        1.0  0.2880159569177869  0.24907944756184985  0.6420439315994559  1.0000
  C   C8        1.0  0.2137473649842133  0.209767269641991  0.662205793341754  1.0000
  C   C9        1.0  0.1514140377684598  0.297791633172104  0.6246389286445946  1.0000
  N   N2        1.0  0.1013114534254763  0.36855469285334985  0.5944387206210473  1.0000
  C   C10       1.0  0.2002015209094785  0.08484820053115194  0.7189134090044282  1.0000
  C   C11       1.0  0.2606570500347613  0.9996786433304178  0.7558134910876604  1.0000
  C   C12       1.0  0.3348220742508853  0.038501113266790066  0.7357813841805889  1.0000
  O   O1        1.0  0.44075341697555265  0.3424487123106472  0.6544437826780973  1.0000
  C   C13       1.0  0.5084669248905641  0.39984873792183895  0.6058139968835949  1.0000
  H   H1        1.0  0.6092055517557102  0.10597350994132371  0.6212988900648431  1.0000
  H   H2        1.0  0.4779261711733332  0.022321776212798294  0.6363972705603553  1.0000
  H   H3        1.0  0.2978920838322875  0.345926688799969  0.5975835106711807  1.0000
  H   H4        1.0  0.1429919394351941  0.05355230783634135  0.7350645083991683  1.0000
  H   H5        1.0  0.2500441961358046  0.9034901857594598  0.8007348248946358  1.0000
  H   H6        1.0  0.3803636012210315  0.9712549192969039  0.7682250794371726  1.0000
  H   H7        1.0  0.4989835536948014  0.43581275569737854  0.5022744360968074  1.0000
  H   H8        1.0  0.5213451180818889  0.48422480531441403  0.6623676848318092  1.0000
  C   C14       1.0  0.9058348975284863  0.9966058127035916  0.5897105888421885  1.0000
  C   C15       1.0  0.904457703374458  0.9848284470752082  0.7264866221233524  1.0000
  C   C16       1.0  0.9036937482926848  0.8617257252550407  0.795569643200638  1.0000
  C   C17       1.0  0.9043121695849909  0.7495802441439056  0.7261196006824013  1.0000
  C   C18       1.0  0.905692619049594  0.7594020210843887  0.5894300472779688  1.0000
  C   C19       1.0  0.906447991348809  0.8833752778701393  0.5220243962565485  1.0000
  C   C20       1.0  0.902230244681896  0.8502487029141723  0.940172891794091  1.0000
  C   C21       1.0  0.8558325230743239  0.7595919005249065  0.007037654147283967  1.0000
  C   C22       1.0  0.8544303655394329  0.7488746520616462  0.1431085433779129  1.0000
  C   C23       1.0  0.8998955550163035  0.8276321474812184  0.21478686681877235  1.0000
  C   C24       1.0  0.9455713392384871  0.9192773015026303  0.14854668001756133  1.0000
  C   C25       1.0  0.9469910144309385  0.9301695001473459  0.012475938702672495  1.0000
  C   C26       1.0  0.8968020452217358  0.8185467914726221  0.3607956378036543  1.0000
  O   O2        1.0  0.8404014518913931  0.9044373277822506  0.3996303990693285  1.0000
  H   H9        1.0  0.9079441304207996  0.22615268224854823  0.33152719614676807  1.0000
  H   H10       1.0  0.9029298029395414  0.07165895745384043  0.7794569735544477  1.0000
  H   H11       1.0  0.9047477137345834  0.6544199033862925  0.7789638288566636  1.0000
  H   H12       1.0  0.9075106379125042  0.8916674201249357  0.41659160041493504  1.0000
  H   H13       1.0  0.9061727945559908  0.4357068087156481  0.5368531850350249  1.0000
  H   H14       1.0  0.8197372947575609  0.6983449989030406  0.9540294261829401  1.0000
  H   H15       1.0  0.8177247423217974  0.6793035816136549  0.1925690800596348  1.0000
  H   H16       1.0  0.9802765650531584  0.9821441383105661  0.20226646585846586  1.0000
  H   H17       1.0  0.9837219986157669  0.00018452011677805302  0.963822675230537  1.0000
  H   H18       1.0  0.9523162033610805  0.8436791899105154  0.4023492277390006  1.0000
  H   H19       1.0  0.8845416365056485  0.7171061881594358  0.3983025266243173  1.0000
  H   H20       1.0  0.8406900634371208  0.8947152976475342  0.4962640127725402  1.0000
  C   C27       1.0  0.9057278194366373  0.3781120041074377  0.20820010453273508  1.0000
  C   C28       1.0  0.9741648014822851  0.44369188260682657  0.20355318987307047  1.0000
  C   C29       1.0  0.008879197627011726  0.4768117913856136  0.08406918057564328  1.0000
  C   C30       1.0  0.9742376391025901  0.44347318114698187  0.9682853072251154  1.0000
  C   C31       1.0  0.905799686288107  0.3778959096831265  0.9709405407979368  1.0000
  C   C32       1.0  0.8719283734267489  0.3455817067681435  0.0913753842524323  1.0000
  C   C33       1.0  0.08128031951482839  0.5461884142746583  0.08020689281283144  1.0000
  C   C34       1.0  0.09318824833301109  0.6486263288597551  0.1602683896440913  1.0000
  C   C35       1.0  0.16136790352502262  0.7138229970948771  0.1564466287036954  1.0000
  C   C36       1.0  0.2184132222001507  0.6775914280803688  0.07289257518921599  1.0000
  C   C37       1.0  0.20722557955293208  0.5759782272736498  0.992977514541054  1.0000
  C   C38       1.0  0.1391136039645824  0.5105779485311364  0.9964254039227183  1.0000
  Cl  Cl1       1.0  0.3039096354763027  0.7595152375560745  0.06833271901723936  1.0000
  H   H21       1.0  0.8796299816478075  0.3531810598279945  0.5374192326668514  1.0000
  H   H22       1.0  0.001160371957427575  0.4675883087427992  0.2931977083761552  1.0000
  H   H23       1.0  0.00023858595480974465  0.47035951594086933  0.8758135950782098  1.0000
  H   H24       1.0  0.8191319331816576  0.2949909914337614  0.09419205067226577  1.0000
  H   H25       1.0  0.8797360687419459  0.3528613331695778  0.6445028063714671  1.0000
  H   H26       1.0  0.04943388866615939  0.6793972381673503  0.22454134124054104  1.0000
  H   H27       1.0  0.16969755030649125  0.792700781281306  0.21825907144724788  1.0000
  H   H28       1.0  0.2513239287213591  0.5473380112355246  0.9283687819741444  1.0000
  H   H29       1.0  0.13203663518279707  0.4310992780197118  0.9348639154945766  1.0000
  Zn  Zn1       1.0  0.8230725961189184  0.3820033692379956  0.5875111086685676  1.0000
  Zn  Zn2       1.0  0.988447694043137  0.3740042374619643  0.5916287279091277  1.0000
  C   C39       1.0  0.9057853905312386  0.37276266901344357  0.8267681011469468  1.0000
  C   C40       1.0  0.9057367052280877  0.38324648906667935  0.35237190725914846  1.0000
  C   C41       1.0  0.9057151400035561  0.6152189936619878  0.5843077712931599  1.0000
  C   C42       1.0  0.9058068996223916  0.14078860668553683  0.5948323055206901  1.0000
  O   O3        1.0  0.968498676240433  0.3819283740523407  0.40231989840655835  1.0000
  O   O4        1.0  0.9685392924716123  0.3680086483926426  0.7799449142409853  1.0000
  O   O5        1.0  0.9684817183881488  0.563795237364157  0.5841564608751704  1.0000
  O   O6        1.0  0.9685561938816687  0.1861417971290349  0.5981082529888948  1.0000
  O   O7        1.0  0.8429640398459812  0.5698658123020515  0.581031582176827  1.0000
  O   O8        1.0  0.8430216136284175  0.3740807837942628  0.7768199657229145  1.0000
  O   O9        1.0  0.8429809973087328  0.388000464633941  0.3991933885004273  1.0000
  O   O10       1.0  0.8430385149577908  0.19221387839355342  0.5949818404542695  1.0000
