data_image0
_chemical_formula_structural       NC9NC3OCH8C16H10C12NCOCH13Zn2C4O8
_chemical_formula_sum              "N3 C47 O10 H31 Zn2"
_cell_length_a       17.728193572023454
_cell_length_b       10.29914801576943
_cell_length_c       10.299158637457994
_cell_angle_alpha    85.55741753884429
_cell_angle_beta     90.68674526026635
_cell_angle_gamma    88.46752555428026

_space_group_name_H-M_alt    "P 1"
_space_group_IT_number       1

loop_
  _space_group_symop_operation_xyz
  'x, y, z'

loop_
  _atom_site_type_symbol
  _atom_site_label
  _atom_site_symmetry_multiplicity
  _atom_site_fract_x
  _atom_site_fract_y
  _atom_site_fract_z
  _atom_site_occupancy
  N   N1        1.0  0.7110587819179  0.38652205352835955  0.5846199139183337  1.0000
  C   C1        1.0  0.6504358901786836  0.3490958675159501  0.5976400856755424  1.0000
  C   C2        1.0  0.5749687419169796  0.3025701304553674  0.6138448356862711  1.0000
  C   C3        1.0  0.5630407854626182  0.17452585783719665  0.6233158209541252  1.0000
  C   C4        1.0  0.4863167801377379  0.12507597068469267  0.6382862000420657  1.0000
  C   C5        1.0  0.4281833574337066  0.20775815487725158  0.6557237009006418  1.0000
  C   C6        1.0  0.3501207746734503  0.16271453244488931  0.6774759938471533  1.0000
  C   C7        1.0  0.2888045886302016  0.24817706039857645  0.6419801750133596  1.0000
  C   C8        1.0  0.2145174888644654  0.20887851526887546  0.6621439803859499  1.0000
  C   C9        1.0  0.1522234839397736  0.2968773102179325  0.6245727848204863  1.0000
  N   N2        1.0  0.1021525109336846  0.36761981517935416  0.5943690951981884  1.0000
  C   C10       1.0  0.2009148916334813  0.08399795226443985  0.7188577516352748  1.0000
  C   C11       1.0  0.26133221954030694  0.998853495205836  0.7557620256666622  1.0000
  C   C12       1.0  0.3355155549826355  0.0376624227650022  0.7357279990022836  1.0000
  O   O1        1.0  0.4415691497381958  0.3415533801575963  0.6543755779890277  1.0000
  C   C13       1.0  0.5093150471306432  0.39892094708914216  0.6057429007526798  1.0000
  H   H1        1.0  0.6099531325194761  0.10505917152638089  0.6212419461787821  1.0000
  H   H2        1.0  0.47864214357489787  0.021418259928540184  0.6363443849381025  1.0000
  H   H3        1.0  0.2987248538519137  0.34499412408905084  0.5975149803986473  1.0000
  H   H4        1.0  0.1436905482199453  0.052712978197288374  0.7350103986081529  1.0000
  H   H5        1.0  0.2506753141381803  0.9026955092227735  0.8006881028173007  1.0000
  H   H6        1.0  0.3810259947044863  0.9704382112432761  0.7681750132696004  1.0000
  H   H7        1.0  0.4998724007081577  0.4348168312364764  0.5022013245102841  1.0000
  H   H8        1.0  0.5222050513122268  0.48333305293764517  0.6622926955260435  1.0000
  C   C14       1.0  0.9065555047668233  0.9956720487321868  0.5896588076256188  1.0000
  C   C15       1.0  0.8893498250384831  0.006055416230672295  0.4557547084374547  1.0000
  C   C16       1.0  0.8806816660458678  0.8941875037112693  0.3876992656018525  1.0000
  C   C17       1.0  0.8894506373595096  0.7707985861750094  0.45535262749722816  1.0000
  C   C18       1.0  0.9066630279738338  0.7584594820358189  0.5893416476410049  1.0000
  C   C19       1.0  0.915110830443595  0.8714171588170535  0.6556697559837263  1.0000
  C   C20       1.0  0.8624803181773588  0.9062174509421428  0.24604488217989307  1.0000
  C   C21       1.0  0.8981998006035843  0.8234759483356558  0.16171682917263985  1.0000
  C   C22       1.0  0.8810429553120935  0.834924571088792  0.028396524821759028  1.0000
  C   C23       1.0  0.8279905399891346  0.9290228805910099  0.9775956122847531  1.0000
  C   C24       1.0  0.7921336937519516  0.011750885347276752  0.06063628850694491  1.0000
  C   C25       1.0  0.8092367304066335  0.000546136338645864  0.19397619828514223  1.0000
  C   C26       1.0  0.8103554026997938  0.9406841936443253  0.8403306038221654  1.0000
  C   C27       1.0  0.7955861652369601  0.9504504309831666  0.7253731433765909  1.0000
  C   C28       1.0  0.7782915626139316  0.9618865642475479  0.5907591300306523  1.0000
  C   C29       1.0  0.7635248039937124  0.9716513111215705  0.47582023930980943  1.0000
  H   H9        1.0  0.913134733941357  0.3191546414562305  0.6411771866299119  1.0000
  H   H10       1.0  0.8836665731352701  0.10136713308226808  0.4037024821395816  1.0000
  H   H11       1.0  0.8818194596265034  0.6842560405277855  0.4037464293530446  1.0000
  H   H12       1.0  0.9283798054585446  0.8626924172092723  0.7589542254487565  1.0000
  H   H13       1.0  0.9386831502446868  0.5278861575808771  0.8424054880889971  1.0000
  H   H14       1.0  0.9401139525996468  0.751058121721099  0.19861168545417485  1.0000
  H   H15       1.0  0.9092880870830751  0.7706139051561983  0.9649251815384474  1.0000
  H   H16       1.0  0.7508200269534512  0.08470355871398239  0.022386495974612952  1.0000
  H   H17       1.0  0.7801120402999514  0.06450922276936222  0.25662282128431735  1.0000
  H   H18       1.0  0.750558401167278  0.9802255809025969  0.37489420297225173  1.0000
  C   C30       1.0  0.9066800014259049  0.3769243734144516  0.20812894289581507  1.0000
  C   C31       1.0  0.90845264126777  0.5135535709010595  0.19680225738982005  1.0000
  C   C32       1.0  0.9092921854762057  0.5829691952174134  0.07390030421314253  1.0000
  C   C33       1.0  0.9083082298556838  0.5139204508739654  0.9614870279982584  1.0000
  C   C34       1.0  0.90653854053396  0.37720719476748  0.9708715160923758  1.0000
  C   C35       1.0  0.9057386221694593  0.3095496136634561  0.0945803650027297  1.0000
  C   C36       1.0  0.9111683252632069  0.7275060767615276  0.06289162193313524  1.0000
  C   C37       1.0  0.9574957279438238  0.793106659377719  0.14658540592994984  1.0000
  C   C38       1.0  0.9592674245630888  0.9291231905491175  0.13609495135306804  1.0000
  C   C39       1.0  0.9152254235208582  0.002243213246865494  0.04081774684735007  1.0000
  C   C40       1.0  0.8679993800511473  0.937046482113006  0.9588844897724065  1.0000
  C   C41       1.0  0.866258669392652  0.8010563651564202  0.9691147182055375  1.0000
  N   N3        1.0  0.9149569810092066  0.14231405739494773  0.02951694506184599  1.0000
  C   C42       1.0  0.9796234479671141  0.21818321564152043  0.054327391167948935  1.0000
  O   O2        1.0  0.04468066979107066  0.16562202385491842  0.06448599337555239  1.0000
  C   C43       1.0  0.9707916814427151  0.3624374355263953  0.05864948014965732  1.0000
  H   H19       1.0  0.906021810637672  0.32436793517411  0.5399620341168849  1.0000
  H   H20       1.0  0.9081302022971177  0.5663908886585935  0.2837229243847825  1.0000
  H   H21       1.0  0.9099517401688264  0.5668591228320756  0.8665341563422437  1.0000
  H   H22       1.0  0.9043739269583884  0.20416419666045305  0.10260206942068062  1.0000
  H   H23       1.0  0.9036564737095698  0.1191305548195507  0.7813034568284283  1.0000
  H   H24       1.0  0.9928078248140275  0.7391684864833683  0.21968010860610643  1.0000
  H   H25       1.0  0.9940970239958614  0.9767835868434902  0.20397400834243395  1.0000
  H   H26       1.0  0.8327088933998211  0.9918586921963304  0.8863592494103427  1.0000
  H   H27       1.0  0.828956773605321  0.7534686752037039  0.9048582933194735  1.0000
  H   H28       1.0  0.8660455636168377  0.1921370582212556  0.9933310462605185  1.0000
  H   H29       1.0  0.9177315500314432  0.3867184475512979  0.1087354927764721  1.0000
  H   H30       1.0  0.9687693364364321  0.40920648407746896  0.9578607007104396  1.0000
  H   H31       1.0  0.018942067849445632  0.40088134863869485  0.11248743662047511  1.0000
  Zn  Zn1       1.0  0.8239199936051548  0.38106380800685646  0.5874408182463822  1.0000
  Zn  Zn2       1.0  0.9892913213742561  0.3730674600961563  0.5915588330136181  1.0000
  C   C44       1.0  0.9065628644702773  0.3719797141605392  0.8266989217513925  1.0000
  C   C45       1.0  0.906650256566266  0.38215310541748826  0.3523009012630054  1.0000
  C   C46       1.0  0.9066397856018589  0.6142746995901742  0.5842262751726004  1.0000
  C   C47       1.0  0.9065732787721927  0.13985656231761734  0.5947736163245299  1.0000
  O   O3        1.0  0.9693978301693362  0.3808676770998327  0.40224909501723816  1.0000
  O   O4        1.0  0.969328302143112  0.367195119499202  0.7798758324801973  1.0000
  O   O5        1.0  0.9693895706773271  0.5628514258801061  0.5840774332049359  1.0000
  O   O6        1.0  0.9693365052244585  0.18521138270238535  0.5980473955081671  1.0000
  O   O7        1.0  0.8438747533218357  0.5689198881307997  0.5809522543397254  1.0000
  O   O8        1.0  0.8438134850169959  0.37326514215030326  0.7767505837201458  1.0000
  O   O9        1.0  0.8438830133766178  0.38693765391009216  0.3991222848669229  1.0000
  O   O10       1.0  0.8438216884092862  0.19128135025936044  0.5949206827300764  1.0000
