data_image0
_chemical_formula_structural       NC9NC3OCH8C12NH11C12NH11Zn2C4O8
_chemical_formula_sum              "N4 C41 O9 H30 Zn2"
_cell_length_a       17.728193572023454
_cell_length_b       10.299770795358612
_cell_length_c       10.299774167527174
_cell_angle_alpha    85.57276865105108
_cell_angle_beta     90.69829352168313
_cell_angle_gamma    88.47103896228896

_space_group_name_H-M_alt    "P 1"
_space_group_IT_number       1

loop_
  _space_group_symop_operation_xyz
  'x, y, z'

loop_
  _atom_site_type_symbol
  _atom_site_label
  _atom_site_symmetry_multiplicity
  _atom_site_fract_x
  _atom_site_fract_y
  _atom_site_fract_z
  _atom_site_occupancy
  N   N1        1.0  0.7109447277572711  0.3864953511399569  0.5851528806593131  1.0000
  C   C1        1.0  0.6503219382982566  0.34907157814997536  0.5981599787192708  1.0000
  C   C2        1.0  0.5748549194229622  0.30254883952513945  0.6143484753947779  1.0000
  C   C3        1.0  0.5629231678099104  0.1745151791927566  0.6237765603062033  1.0000
  C   C4        1.0  0.4861990337619237  0.12506863030292048  0.6387297819482602  1.0000
  C   C5        1.0  0.4280708452351287  0.20774237920518623  0.6561937573551795  1.0000
  C   C6        1.0  0.3500091043561256  0.16270125225015208  0.6779299986972955  1.0000
  C   C7        1.0  0.2886920035282227  0.24815865739836318  0.6424643340183016  1.0000
  C   C8        1.0  0.2144057784165488  0.20886220977683423  0.6626140732771366  1.0000
  C   C9        1.0  0.15211071078260013  0.296855798560145  0.6250739800129528  1.0000
  N   N2        1.0  0.1020388834507576  0.3675941182746878  0.5948952936320113  1.0000
  C   C10       1.0  0.200805090617538  0.08398880675213283  0.7192835297440094  1.0000
  C   C11       1.0  0.2612235119684426  0.9988493499184927  0.7561576815557531  1.0000
  C   C12       1.0  0.3354059693020748  0.03765621426211441  0.7361375520857596  1.0000
  O   O1        1.0  0.4414616133865213  0.34152594118172064  0.6548900160983664  1.0000
  C   C13       1.0  0.5092039651696989  0.39889173614756945  0.6062788729681357  1.0000
  H   H1        1.0  0.6098326035883711  0.1050547348680424  0.6216797870742055  1.0000
  H   H2        1.0  0.4785201892484978  0.02142015633513661  0.6367537378428185  1.0000
  H   H3        1.0  0.2986107297582982  0.3449702034667168  0.598033521513823  1.0000
  H   H4        1.0  0.14358145538561054  0.05270549572322092  0.7354249736572736  1.0000
  H   H5        1.0  0.2505682253211054  0.9026967926897015  0.8010495708545142  1.0000
  H   H6        1.0  0.3809176635013127  0.9704357281705357  0.7685606114107624  1.0000
  H   H7        1.0  0.4997504598892702  0.4347914240951516  0.5027545814181698  1.0000
  H   H8        1.0  0.5221038922255437  0.4832926266682189  0.6628536767568831  1.0000
  C   C14       1.0  0.906427044966242  0.9956793438733824  0.5900620668587351  1.0000
  C   C15       1.0  0.8845328799682726  0.005874829862573261  0.4581121712531526  1.0000
  C   C16       1.0  0.8735081540367453  0.8939014498241308  0.3912187495887627  1.0000
  C   C17       1.0  0.8846710100503982  0.7705865209662922  0.45804706240012183  1.0000
  C   C18       1.0  0.9065638093666168  0.7583998093247495  0.5899974745082701  1.0000
  C   C19       1.0  0.9173195938137539  0.8715066807119476  0.6552659560718035  1.0000
  C   C20       1.0  0.8503457286041938  0.9057410714502765  0.25162342678133953  1.0000
  C   C21       1.0  0.7953994143875917  0.9995614373657726  0.20506954789452747  1.0000
  C   C22       1.0  0.7736312972937156  0.01057409981531432  0.07368217529210419  1.0000
  C   C23       1.0  0.8063975303106349  0.9282051501693296  0.9867583739273784  1.0000
  C   C24       1.0  0.8611628172630766  0.8345913578677338  0.03241722451770679  1.0000
  C   C25       1.0  0.8829913887237676  0.8233197392961433  0.16377613141022374  1.0000
  N   N3        1.0  0.784099413847439  0.9396026210211808  0.8523734273577652  1.0000
  H   H9        1.0  0.9147376401375438  0.31924820607773485  0.6403574264717173  1.0000
  H   H10       1.0  0.8770028211715084  0.10112924568568538  0.406574658722592  1.0000
  H   H11       1.0  0.8752466007775009  0.6839985132229356  0.4074024212977563  1.0000
  H   H12       1.0  0.9342093767431963  0.8628733166932262  0.7570594420606525  1.0000
  H   H13       1.0  0.9149387911980815  0.42630207652539887  0.6402628180381351  1.0000
  H   H14       1.0  0.7685504703860041  0.06328920830212681  0.270600977066084  1.0000
  H   H15       1.0  0.7310874704203802  0.08310187637685362  0.039712289328646566  1.0000
  H   H16       1.0  0.8870785335179222  0.7705629353781884  0.9661733058986215  1.0000
  H   H17       1.0  0.9261138318656496  0.7512738551776174  0.19632095319894605  1.0000
  H   H18       1.0  0.8082037883426194  0.8786232915584224  0.7868372380781112  1.0000
  H   H19       1.0  0.7433219820768882  0.009104715001031938  0.817424421578079  1.0000
  C   C26       1.0  0.9065210850960551  0.37692381166018407  0.2086783530320928  1.0000
  C   C27       1.0  0.8326043727464643  0.33119429102621645  0.20966219561917954  1.0000
  C   C28       1.0  0.7951237880062028  0.30813987451428226  0.09301222915770402  1.0000
  C   C29       1.0  0.832552569690426  0.33142809556551467  0.9743561735261306  1.0000
  C   C30       1.0  0.9064697616705845  0.3771553665231453  0.9713811987234777  1.0000
  C   C31       1.0  0.9430399819941502  0.3996476649039331  0.08905119467234424  1.0000
  C   C32       1.0  0.7169241904203084  0.2597612587820275  0.09510642619467369  1.0000
  C   C33       1.0  0.695698017425702  0.16233327898170247  0.18988517947986638  1.0000
  C   C34       1.0  0.6220930611517365  0.11685501880851357  0.19172244128250093  1.0000
  C   C35       1.0  0.5685499284172078  0.16796836513556146  0.09907972245084995  1.0000
  C   C36       1.0  0.5892780506512676  0.2650302547622918  0.004447961839261216  1.0000
  C   C37       1.0  0.6628603650372281  0.3106108710015658  0.002343846888018808  1.0000
  N   N4        1.0  0.4932691296707267  0.12139504590491645  0.10109554285885691  1.0000
  H   H20       1.0  0.9346995612250497  0.3942945668248139  0.5357613888637045  1.0000
  H   H21       1.0  0.8036287008386698  0.3150915256036442  0.3012276355140586  1.0000
  H   H22       1.0  0.8042869916526288  0.3121186067055659  0.8843234861249671  1.0000
  H   H23       1.0  6.348606583705951e-05  0.43492498995291773  0.08752422244848623  1.0000
  H   H24       1.0  0.9346242452704638  0.39463515657140236  0.6427897050936249  1.0000
  H   H25       1.0  0.7362844914372932  0.12010360667766395  0.26154962230572454  1.0000
  H   H26       1.0  0.6068563436273328  0.04154478487301638  0.26516800790672956  1.0000
  H   H27       1.0  0.5483762444557471  0.30560985729518064  0.9325057591285368  1.0000
  H   H28       1.0  0.6772150383372992  0.38683022769338526  0.9292082486006632  1.0000
  H   H29       1.0  0.4529619476853759  0.15889946010259792  0.03242375571986389  1.0000
  H   H30       1.0  0.4772857383590235  0.04906616736315339  0.17127511199496537  1.0000
  Zn  Zn1       1.0  0.8238060633278894  0.38103739557996286  0.5879718302606616  1.0000
  Zn  Zn2       1.0  0.9891775708587968  0.37304147344616645  0.5920869821086969  1.0000
  C   C38       1.0  0.906476861124133  0.37193802334974024  0.8272144555188059  1.0000
  C   C39       1.0  0.9065085791995304  0.382142397003566  0.35284452910982855  1.0000
  C   C40       1.0  0.9065344262507519  0.6142280156199518  0.5848346914066898  1.0000
  C   C41       1.0  0.9064509573587285  0.139850847195359  0.5952243611852268  1.0000
  O   O2        1.0  0.9692620063575761  0.38085372545197105  0.40278969393528685  1.0000
  O   O3        1.0  0.9692365815952998  0.3671569951883411  0.780392221981876  1.0000
  O   O4        1.0  0.9692822200694061  0.5628092694369049  0.5846688264175459  1.0000
  O   O5        1.0  0.9692163114615925  0.1852014631924488  0.5985129907244009  1.0000
  O   O6        1.0  0.8437672662919151  0.568877408563708  0.5815458202338275  1.0000
  O   O7        1.0  0.843721628098813  0.3732266945831677  0.7772691464237453  1.0000
  O   O8        1.0  0.8437470530082022  0.3869233791148967  0.3996650570530875  1.0000
  O   O9        1.0  0.8437013581009171  0.19127110759636046  0.5953884512062868  1.0000
