data_image0
_chemical_formula_structural       NC9NC3OCH8C12NH11C12ClH9Zn2C4O8
_chemical_formula_sum              "N3 C41 O9 H28 Cl1 Zn2"
_cell_length_a       17.728193572023454
_cell_length_b       10.299770795358612
_cell_length_c       10.299771906710086
_cell_angle_alpha    85.53968522419491
_cell_angle_beta     90.7132806509017
_cell_angle_gamma    88.47103896228896

_space_group_name_H-M_alt    "P 1"
_space_group_IT_number       1

loop_
  _space_group_symop_operation_xyz
  'x, y, z'

loop_
  _atom_site_type_symbol
  _atom_site_label
  _atom_site_symmetry_multiplicity
  _atom_site_fract_x
  _atom_site_fract_y
  _atom_site_fract_z
  _atom_site_occupancy
  N   N1        1.0  0.7107163565689355  0.3873257172367617  0.5850833907950321  1.0000
  C   C1        1.0  0.6500956665921901  0.3498943104515113  0.5980911276953751  1.0000
  C   C2        1.0  0.5746312607103228  0.30336207088582134  0.6142804194648692  1.0000
  C   C3        1.0  0.5627010308892197  0.1753228772615647  0.6237089674343395  1.0000
  C   C4        1.0  0.4859793104482929  0.1258675524070887  0.6386629235001571  1.0000
  C   C5        1.0  0.4278539407905914  0.2085310517969552  0.6561277566458836  1.0000
  C   C6        1.0  0.3497957083692849  0.16347716795982725  0.677865065558086  1.0000
  C   C7        1.0  0.2884728830105285  0.24895538771418702  0.6423976589917944  1.0000
  C   C8        1.0  0.2141899102784481  0.20964711432002803  0.6625483879000602  1.0000
  C   C9        1.0  0.1518887832790798  0.2976627351803678  0.6250064508635351  1.0000
  N   N2        1.0  0.10181208479022172  0.3684187666021852  0.5948262822639201  1.0000
  C   C10       1.0  0.20059836952503604  0.08474045229883731  0.7192206276731894  1.0000
  C   C11       1.0  0.261022742751414  0.9995793542255933  0.7560965905497254  1.0000
  C   C12       1.0  0.3352019686258338  0.03839796827456321  0.7360754777960541  1.0000
  O   O1        1.0  0.4412444985044491  0.34231537893215847  0.6548239513561434  1.0000
  C   C13       1.0  0.508979003938455  0.3997097035141266  0.6062104207017114  1.0000
  H   H1        1.0  0.6096101282264539  0.10586366352168208  0.621612091219846  1.0000
  H   H2        1.0  0.4783001469805897  0.022220238168867423  0.6366867823418005  1.0000
  H   H3        1.0  0.2983844376407103  0.3457930099852997  0.5979646642790135  1.0000
  H   H4        1.0  0.1433773396917254  0.053447667944082955  0.7353628643694556  1.0000
  H   H5        1.0  0.2503747021266085  0.903400450190574  0.8009906847024619  1.0000
  H   H6        1.0  0.3807188962474579  0.9711584532654076  0.768500129571549  1.0000
  H   H7        1.0  0.499508788749825  0.4356701493066546  0.5026810445819205  1.0000
  H   H8        1.0  0.5218880627619618  0.48407739058943045  0.6627880031478719  1.0000
  C   C14       1.0  0.9061994661721311  0.996506828795446  0.5899928181079128  1.0000
  C   C15       1.0  0.8842840030748487  0.006779755462354098  0.4580364418160341  1.0000
  C   C16       1.0  0.8732484798423351  0.8948456348100954  0.3911397346978809  1.0000
  C   C17       1.0  0.8844221226477212  0.7714914847781058  0.45797132976519794  1.0000
  C   C18       1.0  0.9063362201466219  0.7592273321557131  0.5899282225850104  1.0000
  C   C19       1.0  0.9171025396123429  0.872295897825255  0.6551999097937788  1.0000
  C   C20       1.0  0.8500635222582034  0.9067671841736955  0.25153755570090675  1.0000
  C   C21       1.0  0.7951096937564903  0.0006148723080903196  0.20498139033191465  1.0000
  C   C22       1.0  0.7733203693604236  0.011704645293650895  0.07358756467137262  1.0000
  C   C23       1.0  0.8060725719626495  0.9293867107550033  0.9866594940657678  1.0000
  C   C24       1.0  0.8608452287332323  0.8357461215217598  0.032320587179183846  1.0000
  C   C25       1.0  0.8826950029014494  0.8243974091205206  0.16368594573173367  1.0000
  N   N3        1.0  0.7837527643573342  0.9408630514027688  0.8522679472129355  1.0000
  H   H9        1.0  0.9145181795428379  0.3200461729261652  0.6402906479649697  1.0000
  H   H10       1.0  0.8767456255821493  0.10206441837190683  0.4064963980333669  1.0000
  H   H11       1.0  0.8749895387977176  0.6849332000997935  0.40732420126388447  1.0000
  H   H12       1.0  0.9340087530797863  0.8636027917619795  0.7569983953443677  1.0000
  H   H13       1.0  0.9147193153325807  0.427100098899005  0.6401960348847184  1.0000
  H   H14       1.0  0.7682713272159929  0.06430418320426412  0.27051603806331204  1.0000
  H   H15       1.0  0.7307710593906328  0.0842523585969277  0.03961601028541706  1.0000
  H   H16       1.0  0.8867502525237061  0.7717565772285854  0.9660734150065156  1.0000
  H   H17       1.0  0.9258226991194586  0.7523324246226886  0.19623236595128146  1.0000
  H   H18       1.0  0.8078465606230931  0.8799221847738726  0.7867285391396495  1.0000
  H   H19       1.0  0.7429696914501036  0.010385656764464679  0.8173172249215259  1.0000
  C   C26       1.0  0.9062319469640142  0.37797512861434956  0.2085903727150471  1.0000
  C   C27       1.0  0.9746929188028686  0.44354849365316285  0.20396202965181387  1.0000
  C   C28       1.0  0.009419430550441366  0.47666511292875224  0.08448739959682827  1.0000
  C   C29       1.0  0.9747656764199328  0.44332981391497084  0.9686940850696906  1.0000
  C   C30       1.0  0.9063037347659239  0.3777590556527568  0.9713307477843687  1.0000
  C   C31       1.0  0.8724206010372009  0.3454480622174425  0.09175644016464224  1.0000
  C   C32       1.0  0.08184593111956318  0.5460348452606876  0.08064475863226561  1.0000
  C   C33       1.0  0.0937913327791664  0.6484625856073862  0.16073526490441736  1.0000
  C   C34       1.0  0.16199483758213296  0.7136527784427686  0.15693196703895929  1.0000
  C   C35       1.0  0.21902690237713673  0.677424807984734  0.07336765308952309  1.0000
  C   C36       1.0  0.20780208857726934  0.5758216995049978  0.9934238165515494  1.0000
  C   C37       1.0  0.1396661888951496  0.510427916385028  0.9968531851977214  1.0000
  Cl  Cl1       1.0  0.3045532842243346  0.7593404807039323  0.0688309969594274  1.0000
  H   H20       1.0  0.8801249891796709  0.35304666050177835  0.537802440643405  1.0000
  H   H21       1.0  0.0016972308361609123  0.46744254637166227  0.2936133153949816  1.0000
  H   H22       1.0  0.0007764585696028448  0.4702134783306011  0.8762299868764969  1.0000
  H   H23       1.0  0.8196056541887609  0.2948623716046255  0.09455877977616356  1.0000
  H   H24       1.0  0.8802309593145131  0.35272696559894046  0.6448859238044782  1.0000
  H   H25       1.0  0.050048229427024804  0.679230438716812  0.22501693052905014  1.0000
  H   H26       1.0  0.17035333866730706  0.7925227284070353  0.21876674721906797  1.0000
  H   H27       1.0  0.251889960860471  0.5471843280424087  0.928806973348479  1.0000
  H   H28       1.0  0.13256014599926846  0.43095713977640937  0.935269189167744  1.0000
  Zn  Zn1       1.0  0.8235781471476331  0.3818661072505436  0.5879024788483889  1.0000
  Zn  Zn2       1.0  0.9889503189072792  0.3738677699564579  0.5920178328110839  1.0000
  C   C38       1.0  0.9062875612168887  0.3726263248217849  0.8271568544485541  1.0000
  C   C39       1.0  0.9062427110028056  0.3831091036112957  0.3527636294786549  1.0000
  C   C40       1.0  0.9063060037033283  0.6150585684603023  0.5847651859146226  1.0000
  C   C41       1.0  0.9062242118131528  0.140675302394895  0.5951553659792059  1.0000
  O   O2        1.0  0.9690041998351385  0.3817911195134873  0.4027112473484582  1.0000
  O   O3        1.0  0.9690397240876848  0.3678727763751719  0.7803323212492723  1.0000
  O   O4        1.0  0.9690537707496308  0.5636399196225177  0.5845993127790616  1.0000
  O   O5        1.0  0.9689900967353722  0.1860239883131538  0.5984441570386021  1.0000
  O   O6        1.0  0.8435383128861338  0.5697098916247034  0.581476153209671  1.0000
  O   O7        1.0  0.8435242664939946  0.3739443086860965  0.7772090923020625  1.0000
  O   O8        1.0  0.843488742136547  0.387862607008844  0.39958645700049567  1.0000
  O   O9        1.0  0.8434746390411946  0.19209546649235354  0.595319464059507  1.0000
