data_image0
_chemical_formula_structural       NC9NC3OCH8C16H10C15H12Zn2C4O8
_chemical_formula_sum              "N2 C48 O9 H30 Zn2"
_cell_length_a       17.728193572023454
_cell_length_b       10.29914801576943
_cell_length_c       10.299157797200024
_cell_angle_alpha    85.52082761248347
_cell_angle_beta     90.72660703466438
_cell_angle_gamma    88.46752555428026

_space_group_name_H-M_alt    "P 1"
_space_group_IT_number       1

loop_
  _space_group_symop_operation_xyz
  'x, y, z'

loop_
  _atom_site_type_symbol
  _atom_site_label
  _atom_site_symmetry_multiplicity
  _atom_site_fract_x
  _atom_site_fract_y
  _atom_site_fract_z
  _atom_site_occupancy
  N   N1        1.0  0.7104716102845564  0.3874568807511074  0.5845346235243953  1.0000
  C   C1        1.0  0.649854119974675  0.35002209520340477  0.5975555798733825  1.0000
  C   C2        1.0  0.574393694267305  0.3034856552640708  0.6137613063776519  1.0000
  C   C3        1.0  0.5624696668592425  0.17543512726973542  0.6232328623643346  1.0000
  C   C4        1.0  0.48575187200886827  0.1259753525131564  0.6382041435629817  1.0000
  C   C5        1.0  0.4276256832669093  0.20864601962231188  0.655642695200308  1.0000
  C   C6        1.0  0.3495721244638952  0.16358803028186375  0.6773962989336901  1.0000
  C   C7        1.0  0.2882412129499928  0.249074002438324  0.6418983411321368  1.0000
  C   C8        1.0  0.2139624781560769  0.20976213956142464  0.6620633615697975  1.0000
  C   C9        1.0  0.1516528867889279  0.29778574945365577  0.6244899019749737  1.0000
  N   N2        1.0  0.10156938375649262  0.3685482032836276  0.5942843922870897  1.0000
  C   C10       1.0  0.2003834086813647  0.08484411836622474  0.7187805503745475  1.0000
  C   C11       1.0  0.2608160463576816  0.99967528685136  0.7556870482467966  1.0000
  C   C12       1.0  0.33499107066699757  0.038497446441760674  0.735651814337775  1.0000
  O   O1        1.0  0.4410109163014611  0.34244213530800405  0.6542944910511972  1.0000
  C   C13       1.0  0.5087366383863657  0.39984182304656324  0.6056588832238086  1.0000
  H   H1        1.0  0.6093811535673849  0.10596981070731082  0.6211588626178979  1.0000
  H   H2        1.0  0.47807642988237975  0.022318924282905384  0.636262211445803  1.0000
  H   H3        1.0  0.2981430317478745  0.345920434405772  0.5974304670576793  1.0000
  H   H4        1.0  0.143165766207173  0.05354847583322564  0.7349341707012527  1.0000
  H   H5        1.0  0.2501777785768975  0.9034876281886092  0.8006158326298287  1.0000
  H   H6        1.0  0.3805149710603326  0.9712518043852033  0.7681007838527714  1.0000
  H   H7        1.0  0.4992510376528517  0.4358060941135027  0.5021110675960256  1.0000
  H   H8        1.0  0.5216501022984407  0.4842165790071351  0.662212085671422  1.0000
  C   C14       1.0  0.9059704235228228  0.9966035478771578  0.5895738208739558  1.0000
  C   C15       1.0  0.8887091935649684  0.0070753560696941165  0.45566165266356795  1.0000
  C   C16       1.0  0.8800128017139707  0.8952523926641328  0.3876021088266959  1.0000
  C   C17       1.0  0.8888098390823744  0.7718187915795933  0.45525954749405995  1.0000
  C   C18       1.0  0.9060778151557437  0.7593911906579404  0.5892566417773728  1.0000
  C   C19       1.0  0.9145531338977028  0.8723050591915373  0.6555887470326871  1.0000
  C   C20       1.0  0.8617526884039368  0.90737589948027  0.24593918935263037  1.0000
  C   C21       1.0  0.8974371872656005  0.8246900936865101  0.16160605476133405  1.0000
  C   C22       1.0  0.8802250339323804  0.8362267715501271  0.028277716567537192  1.0000
  C   C23       1.0  0.8271515438076187  0.930358633930789  0.9774737427822586  1.0000
  C   C24       1.0  0.7913291470656428  0.013031792158203714  0.06051942301154223  1.0000
  C   C25       1.0  0.8084874998953822  0.0017389750901413148  0.193867367814073  1.0000
  C   C26       1.0  0.8094594620126908  0.9421106074843496  0.8402004627700284  1.0000
  C   C27       1.0  0.7946425343495509  0.9519527716816645  0.7252360750211917  1.0000
  C   C28       1.0  0.7772920869885156  0.9634778145226864  0.5906139498738074  1.0000
  C   C29       1.0  0.7624776458716559  0.9733184759902908  0.4756681329687087  1.0000
  H   H9        1.0  0.912571025140734  0.32005211385203425  0.6410953043608423  1.0000
  H   H10       1.0  0.883004347751374  0.10242145226477906  0.4036062897136179  1.0000
  H   H11       1.0  0.8811572524741461  0.6853103306841348  0.403650239575327  1.0000
  H   H12       1.0  0.9278649565627156  0.8635121004774875  0.7588794403899248  1.0000
  H   H13       1.0  0.9382029211761898  0.5286507231369979  0.8423357317790756  1.0000
  H   H14       1.0  0.9393666451241927  0.752247898835908  0.1985031343162198  1.0000
  H   H15       1.0  0.9084438345625804  0.7719580270350731  0.9648025485194678  1.0000
  H   H16       1.0  0.7499996123081558  0.0860097286663617  0.02226732555779365  1.0000
  H   H17       1.0  0.7793887987935696  0.06566068481281362  0.25651776588060127  1.0000
  H   H18       1.0  0.7494693737931489  0.9819594051847004  0.374736014857441  1.0000
  C   C30       1.0  0.9059366421928006  0.3781078645913496  0.20802096526503577  1.0000
  C   C31       1.0  0.8273315446305147  0.363927345771085  0.20624410084745715  1.0000
  C   C32       1.0  0.7876380081588245  0.35662059946914626  0.0882049297087768  1.0000
  C   C33       1.0  0.8275557365268847  0.3637077571358429  0.9709824826934361  1.0000
  C   C34       1.0  0.9061115773646619  0.37788686236370594  0.9708094375424046  1.0000
  C   C35       1.0  0.944843313677099  0.3849983568371622  0.08984757725850212  1.0000
  C   C36       1.0  0.7045348176152353  0.3416339718907677  0.08737268231328699  1.0000
  C   C37       1.0  0.6705663511345256  0.25628987858686525  0.00545531004194566  1.0000
  C   C38       1.0  0.5923627802064196  0.24227989025025454  0.004704350794085599  1.0000
  C   C39       1.0  0.5467346892554957  0.3126721784117008  0.08636836615543797  1.0000
  C   C40       1.0  0.5802994086830344  0.3988814106365466  0.16729860338680824  1.0000
  C   C41       1.0  0.6585022193167875  0.41289563444342137  0.16819749264764505  1.0000
  C   C42       1.0  0.46248766056242324  0.2999287434884139  0.08321224534367366  1.0000
  C   C43       1.0  0.42856170805855326  0.39534435771525755  0.9849162663929563  1.0000
  C   C44       1.0  0.40067963822033514  0.4738038169862364  0.9040901503681922  1.0000
  H   H19       1.0  0.054359569778766215  0.40407518030238476  0.4187311919339136  1.0000
  H   H20       1.0  0.7969764310530822  0.35676935554754885  0.297028721597812  1.0000
  H   H21       1.0  0.7970925018665617  0.3599421078462943  0.8795929494619301  1.0000
  H   H22       1.0  0.005435810665598506  0.3959313482914173  0.09042983767973789  1.0000
  H   H23       1.0  0.9363298796557044  0.38329903160215406  0.643270608690218  1.0000
  H   H24       1.0  0.7045692239059287  0.19927563266332493  0.9429541026110875  1.0000
  H   H25       1.0  0.5673684325865145  0.1763269242917298  0.9405502934936876  1.0000
  H   H26       1.0  0.5458557910610444  0.45560776079051335  0.22944395377409776  1.0000
  H   H27       1.0  0.6828813482885315  0.4809857509384903  0.2306940883684554  1.0000
  H   H28       1.0  0.447412318918069  0.20040891932339777  0.05943321409408209  1.0000
  H   H29       1.0  0.4384678162289826  0.31653628903796216  0.17982828882606294  1.0000
  H   H30       1.0  0.3762227176608577  0.5426874610007824  0.8331327193144178  1.0000
  Zn  Zn1       1.0  0.8233339922263726  0.3819967720847255  0.5873556978393215  1.0000
  Zn  Zn2       1.0  0.9887070283574049  0.3739977043164082  0.5914739607569341  1.0000
  C   C45       1.0  0.9060761195193672  0.37275465355612014  0.8266282189683338  1.0000
  C   C46       1.0  0.9059667071927953  0.38324137420658766  0.35220161139266937  1.0000
  C   C47       1.0  0.9060524506671466  0.6152097868026016  0.5841409610581054  1.0000
  C   C48       1.0  0.9059903194109341  0.14078468324463977  0.5946889377897573  1.0000
  O   O2        1.0  0.9687350018465551  0.38192295621237315  0.4021528150105873  1.0000
  O   O3        1.0  0.9688221325937667  0.36800098450899377  0.7798023081513441  1.0000
  O   O4        1.0  0.968802173995398  0.5637866113993595  0.5839921101212671  1.0000
  O   O5        1.0  0.9687549039932808  0.1861373413707097  0.5979629142503791  1.0000
  O   O6        1.0  0.8432860601567944  0.5698571377615291  0.5808667429336833  1.0000
  O   O7        1.0  0.8433060189555425  0.3740730713177358  0.7766768710647076  1.0000
  O   O8        1.0  0.8432188878939848  0.3879949982115365  0.39902581643959834  1.0000
  O   O9        1.0  0.8432387900586513  0.19220937405227656  0.5948360130574828  1.0000
