data_image0
_chemical_formula_structural       NC9NC3OCH8C12OCH12C16H10Zn2C4O8
_chemical_formula_sum              "N2 C46 O10 H30 Zn2"
_cell_length_a       17.728193572023454
_cell_length_b       10.29979075500242
_cell_length_c       10.299151387937775
_cell_angle_alpha    85.5809823184421
_cell_angle_beta     90.6938546660218
_cell_angle_gamma    88.43583692371088

_space_group_name_H-M_alt    "P 1"
_space_group_IT_number       1

loop_
  _space_group_symop_operation_xyz
  'x, y, z'

loop_
  _atom_site_type_symbol
  _atom_site_label
  _atom_site_symmetry_multiplicity
  _atom_site_fract_x
  _atom_site_fract_y
  _atom_site_fract_z
  _atom_site_occupancy
  N   N1        1.0  0.7105165908625075  0.38631200983768865  0.5850744922941389  1.0000
  C   C1        1.0  0.6499065507308958  0.34888954704268316  0.5980824890287391  1.0000
  C   C2        1.0  0.5744553800716784  0.3023684399014399  0.6142721037920733  1.0000
  C   C3        1.0  0.5625689080926197  0.17433419456437127  0.6237015680686675  1.0000
  C   C4        1.0  0.4858617250120544  0.12488905420788221  0.6386558691852253  1.0000
  C   C5        1.0  0.42770318259671186  0.20756658381963766  0.6561200922768957  1.0000
  C   C6        1.0  0.3496564979132576  0.16252791246408016  0.6778577091654121  1.0000
  C   C7        1.0  0.28831055703549463  0.24798149296321426  0.6423897137635628  1.0000
  C   C8        1.0  0.21403741161965223  0.2086873590809084  0.6625407104426586  1.0000
  C   C9        1.0  0.1517126964488325  0.296676862057748  0.624998167892628  1.0000
  N   N2        1.0  0.10161703537408501  0.3674118971669518  0.5948175125188921  1.0000
  C   C10       1.0  0.2004786363179873  0.0838202449241634  0.7192138068621714  1.0000
  C   C11       1.0  0.2609257174262682  0.9986848210846498  0.7560903551814868  1.0000
  C   C12       1.0  0.3350952637740923  0.03748938297008442  0.7360689780878169  1.0000
  O   O1        1.0  0.44104623261332426  0.34135199212016576  0.6548153228596041  1.0000
  C   C13       1.0  0.5087703999603177  0.39871163583169755  0.6062014162861127  1.0000
  H   H1        1.0  0.609503250560486  0.10487239086525268  0.6216051945936045  1.0000
  H   H2        1.0  0.4782199914952305  0.021238718347766694  0.6366804773122667  1.0000
  H   H3        1.0  0.2981968129616861  0.3447880917105437  0.5979560552992942  1.0000
  H   H4        1.0  0.1432654088712898  0.052538790354998754  0.7353562566483185  1.0000
  H   H5        1.0  0.2503026438817945  0.9025372878194066  0.8009851079718426  1.0000
  H   H6        1.0  0.3806294289985837  0.9702725592710058  0.7684940895077259  1.0000
  H   H7        1.0  0.49930897871032814  0.4345969117614801  0.5026718619567432  1.0000
  H   H8        1.0  0.5216375030740694  0.48312198437291887  0.6627783457004719  1.0000
  C   C14       1.0  0.9061382527981128  0.995490768013396  0.589986735211421  1.0000
  C   C15       1.0  0.8842782835250504  0.9854370607346777  0.7208811192599072  1.0000
  C   C16       1.0  0.8731417884615116  0.863209365231103  0.7871716558358564  1.0000
  C   C17       1.0  0.8841427124173437  0.7501612910273388  0.720811956405587  1.0000
  C   C18       1.0  0.906002648297602  0.7582227847541062  0.5899166390041766  1.0000
  C   C19       1.0  0.9168797717404272  0.8813348135046124  0.5252376686370481  1.0000
  C   C20       1.0  0.8500197767339007  0.8536269942910548  0.9256519356325525  1.0000
  C   C21       1.0  0.7949516173339385  0.7654411559626435  0.9693459477431128  1.0000
  C   C22       1.0  0.7732577671137787  0.7566928133807362  0.09954544331994286  1.0000
  C   C23       1.0  0.8061436840457344  0.8354860788864827  0.18771345055837696  1.0000
  C   C24       1.0  0.8614125328098649  0.9242721008194755  0.14589615634642694  1.0000
  C   C25       1.0  0.8828724937305323  0.9326703343100609  0.015164130919322227  1.0000
  O   O2        1.0  0.8962856339346864  0.005322474881746864  0.23063390305002807  1.0000
  C   C26       1.0  0.8800910722278927  0.007139716746425329  0.3655674812407652  1.0000
  H   H9        1.0  0.9145008612562938  0.32677155256827106  0.5401324708939834  1.0000
  H   H10       1.0  0.8748615785895808  0.07293970203466826  0.7710756329427733  1.0000
  H   H11       1.0  0.8766137012904346  0.6556466394248834  0.7719926154487624  1.0000
  H   H12       1.0  0.9337443952432135  0.8883223993630798  0.424258196076128  1.0000
  H   H13       1.0  0.9142947335827991  0.4338449258235151  0.5400229824761498  1.0000
  H   H14       1.0  0.7679671686786793  0.7044883143470395  0.9024637425622319  1.0000
  H   H15       1.0  0.730633122449276  0.6887967944359651  0.1321626110220906  1.0000
  H   H16       1.0  0.7882480677839545  0.8266437494369239  0.2879349042301177  1.0000
  H   H17       1.0  0.9261058610184497  0.00011136286809909635  0.9840749953810046  1.0000
  H   H18       1.0  0.8931212911919195  0.9100022751727728  0.416515008191359  1.0000
  H   H19       1.0  0.9156975496837716  0.08007579014778354  0.40866910112201993  1.0000
  H   H20       1.0  0.8198457852167584  0.03496783021696004  0.3785022448250077  1.0000
  C   C27       1.0  0.9061142053751593  0.37668592875498064  0.20858183702439415  1.0000
  C   C28       1.0  0.8332915628289098  0.43415793193002217  0.20185450973675723  1.0000
  C   C29       1.0  0.7963239369172459  0.46347354220713544  0.08128652337176723  1.0000
  C   C30       1.0  0.8331602160278719  0.4345418719255325  0.9665388704252655  1.0000
  C   C31       1.0  0.9060266620112254  0.3770276077493735  0.9713216032871075  1.0000
  C   C32       1.0  0.9420558135992003  0.3484556163245405  0.09275849533905656  1.0000
  C   C33       1.0  0.7192864005412367  0.5242722721859929  0.0752152333865097  1.0000
  C   C34       1.0  0.7001004960715592  0.6250113374191142  0.9794237735345206  1.0000
  C   C35       1.0  0.6275803361989731  0.6821964907029245  0.9738374410233606  1.0000
  C   C36       1.0  0.5732947254026967  0.6394970016929926  0.06371705604809508  1.0000
  C   C37       1.0  0.5917965712089148  0.5393493303710579  0.15932933310796527  1.0000
  C   C38       1.0  0.6642950961033778  0.482077630144774  0.16516469926069477  1.0000
  C   C39       1.0  0.49864561117214856  0.6984147553533502  0.057838179336458406  1.0000
  C   C40       1.0  0.43612803136110023  0.7477574870515524  0.052914617934360475  1.0000
  C   C41       1.0  0.36292059548053457  0.8055373796168535  0.047149177268925424  1.0000
  C   C42       1.0  0.3004131185908698  0.8548723751640224  0.04222651801896893  1.0000
  H   H21       1.0  0.9341088770356948  0.3545179448937026  0.538649505275316  1.0000
  H   H22       1.0  0.805559221500209  0.45789239144169946  0.29046554402533387  1.0000
  H   H23       1.0  0.8045215447992717  0.45530477098851896  0.8734508412502962  1.0000
  H   H24       1.0  0.9982248767446938  0.30412247353954003  0.09723195908601112  1.0000
  H   H25       1.0  0.04336879527823112  0.26772327112694305  0.7731099861703044  1.0000
  H   H26       1.0  0.7414652254366986  0.6607142118374387  0.9099045372650085  1.0000
  H   H27       1.0  0.6139189572595732  0.7599055616412753  0.8996379427530035  1.0000
  H   H28       1.0  0.550138828252737  0.5053018058651473  0.2291725347210234  1.0000
  H   H29       1.0  0.6770647865892625  0.4036500170551538  0.23894903326030792  1.0000
  H   H30       1.0  0.24552639301879853  0.8981925121665573  0.037904024146851345  1.0000
  Zn  Zn1       1.0  0.8233797421334081  0.38085437857250537  0.5878936175228244  1.0000
  Zn  Zn2       1.0  0.9887539103636291  0.3728589294194742  0.5920090259589004  1.0000
  C   C43       1.0  0.9060424535054195  0.37178943562602584  0.8271478720894909  1.0000
  C   C44       1.0  0.9060930045663866  0.38192542374161387  0.35275494364864435  1.0000
  C   C45       1.0  0.9060249712239208  0.6140480919032105  0.5847546447471086  1.0000
  C   C46       1.0  0.9061104306867461  0.13966520991256504  0.5951482389688296  1.0000
  O   O3        1.0  0.9688445253774153  0.38064394906494203  0.40270253184354443  1.0000
  O   O4        1.0  0.9688061001004656  0.3670015695022564  0.7803234099165077  1.0000
  O   O5        1.0  0.9687911367656721  0.5626285397328448  0.5845891426874237  1.0000
  O   O6        1.0  0.9688594322907302  0.18501699080930578  0.5984367002925524  1.0000
  O   O7        1.0  0.84327416377222  0.5686963199125392  0.5814659417779542  1.0000
  O   O8        1.0  0.8432891268340658  0.3730709099636802  0.777200139618017  1.0000
  O   O9        1.0  0.8433275523484425  0.3867132435681766  0.39957770014584915  1.0000
  O   O10       1.0  0.8433424592491493  0.1910862760674532  0.5953119659637149  1.0000
