data_image0
_chemical_formula_structural       NC9NC3OCH8C12ClH9C12SCH12Zn2C4O8
_chemical_formula_sum              "N2 C42 O9 H29 Cl1 S1 Zn2"
_cell_length_a       17.728193572023454
_cell_length_b       10.299768534541528
_cell_length_c       10.299780138516091
_cell_angle_alpha    85.57853540926422
_cell_angle_beta     90.6970768647591
_cell_angle_gamma    88.47167022583639

_space_group_name_H-M_alt    "P 1"
_space_group_IT_number       1

loop_
  _space_group_symop_operation_xyz
  'x, y, z'

loop_
  _atom_site_type_symbol
  _atom_site_label
  _atom_site_symmetry_multiplicity
  _atom_site_fract_x
  _atom_site_fract_y
  _atom_site_fract_z
  _atom_site_occupancy
  N   N1        1.0  0.7109721402632044  0.38649457076476446  0.5853051094240744  1.0000
  C   C1        1.0  0.6503489184185625  0.3490710163894779  0.5983081043960075  1.0000
  C   C2        1.0  0.5748813617989996  0.3025485493832676  0.6144915003817619  1.0000
  C   C3        1.0  0.5629485592102846  0.17451591210735695  0.6239055559674487  1.0000
  C   C4        1.0  0.4862238811321725  0.12506966957864174  0.6388533568773469  1.0000
  C   C5        1.0  0.4280960836239673  0.20774257311076227  0.6563263858460109  1.0000
  C   C6        1.0  0.3500337480810281  0.16270166155779786  0.6780576875401634  1.0000
  C   C7        1.0  0.28871770499694127  0.24815861271543738  0.6426013936177  1.0000
  C   C8        1.0  0.2144309465854742  0.20886234372039092  0.6627468229721505  1.0000
  C   C9        1.0  0.15213698056612363  0.2968554730563695  0.6252163788034488  1.0000
  N   N2        1.0  0.1020660388267654  0.3675934234204674  0.5950454493603985  1.0000
  C   C10       1.0  0.2008286539968972  0.0839895660680825  0.7194025854369921  1.0000
  C   C11       1.0  0.2612460027274801  0.9988505494512511  0.7562674010008394  1.0000
  C   C12       1.0  0.3354289881995831  0.037657238346460176  0.7362515277673956  1.0000
  O   O1        1.0  0.4414878455641567  0.34152499902936473  0.6550373019882969  1.0000
  C   C13       1.0  0.5092312102934902  0.39889068382512893  0.6064324549813407  1.0000
  H   H1        1.0  0.609857512885686  0.1050560793834372  0.6218011732522424  1.0000
  H   H2        1.0  0.4785443031499373  0.02142209919477378  0.6368659576788116  1.0000
  H   H3        1.0  0.2986376814446254  0.3449696778397111  0.5981811978801708  1.0000
  H   H4        1.0  0.1436045929852322  0.052706396452299575  0.73554059827697  1.0000
  H   H5        1.0  0.2505894650486117  0.9026984639030589  0.8011487456238717  1.0000
  H   H6        1.0  0.3809397951109646  0.9704370738567873  0.768667215044081  1.0000
  H   H7        1.0  0.49977923165772675  0.43479087631980584  0.5029121204448996  1.0000
  H   H8        1.0  0.5221310633693862  0.48329040735451834  0.6630164925232909  1.0000
  C   C14       1.0  0.9064515409200181  0.9956818735796731  0.5901714773571174  1.0000
  C   C15       1.0  0.9114326520589414  0.004968210347117585  0.45383293859054885  1.0000
  C   C16       1.0  0.9140291687620863  0.8925307997505646  0.38475831205340905  1.0000
  C   C17       1.0  0.9115767807633607  0.7696735316994837  0.4538520174065408  1.0000
  C   C18       1.0  0.9065938943474758  0.7583957516741202  0.5901904499123509  1.0000
  C   C19       1.0  0.9040597346112795  0.8719554450648299  0.6575866975880975  1.0000
  C   C20       1.0  0.9192997724815124  0.9034085892199417  0.24052352876402128  1.0000
  C   C21       1.0  0.8763741557493023  0.9990021368720107  0.1649941016464933  1.0000
  C   C22       1.0  0.8814022353292627  0.009041580175406905  0.029245883611157097  1.0000
  C   C23       1.0  0.9292831913852226  0.9240126471560679  0.9673335017361042  1.0000
  C   C24       1.0  0.9721965620678423  0.8287315079949835  0.041351473452161835  1.0000
  C   C25       1.0  0.9673024942186896  0.8182933409570741  0.17711767168341797  1.0000
  Cl  Cl1       1.0  0.935507580590091  0.9368587270963834  0.7970114340146668  1.0000
  H   H9        1.0  0.9045147722733744  0.31959894281960066  0.6421189547610986  1.0000
  H   H10       1.0  0.914346313093506  0.09982483794942976  0.4011753612444138  1.0000
  H   H11       1.0  0.9125210790075381  0.6827791204834766  0.40093184697717543  1.0000
  H   H12       1.0  0.9002162723950268  0.8640233119448145  0.7627655851640385  1.0000
  H   H13       1.0  0.9047252277440614  0.4266431929801244  0.642147424043015  1.0000
  H   H14       1.0  0.8382148598270445  0.06483548512558635  0.2107850283280026  1.0000
  H   H15       1.0  0.8479011369389321  0.08275868633510997  0.9723023701185731  1.0000
  H   H16       1.0  0.009514393982977154  0.7628917334416504  0.9938501902078567  1.0000
  H   H17       1.0  0.0017613140634196167  0.7448228352548107  0.23259080175334845  1.0000
  C   C26       1.0  0.906553025160339  0.3769260667208463  0.2088296200884523  1.0000
  C   C27       1.0  0.8347898178469803  0.32238330733223086  0.21053557081807406  1.0000
  C   C28       1.0  0.7983969966510877  0.2948617641194864  0.09425233228039964  1.0000
  C   C29       1.0  0.8347280782129004  0.3226117279718417  0.9752301412495576  1.0000
  C   C30       1.0  0.9064924101858179  0.37715160955092486  0.971532380175657  1.0000
  C   C31       1.0  0.9420029902438887  0.4040041522805109  0.08884510306773485  1.0000
  C   C32       1.0  0.7224765093914155  0.23717517366735286  0.09711986894010938  1.0000
  C   C33       1.0  0.666595053395734  0.281536447254336  0.004772490467579438  1.0000
  C   C34       1.0  0.5951552271411884  0.22721093064319597  0.007708335479441164  1.0000
  C   C35       1.0  0.5785549891718553  0.1282043421195871  0.10285560441348873  1.0000
  C   C36       1.0  0.633764676961946  0.0830766090530708  0.19478058557599676  1.0000
  C   C37       1.0  0.70525115768428  0.13722644270135698  0.19220830691260127  1.0000
  S   S1        1.0  0.48691880035007923  0.05836254057596646  0.10617324729496369  1.0000
  C   C38       1.0  0.44824078823404284  0.1744459732718513  0.21394123267335452  1.0000
  H   H18       1.0  0.9339090880789791  0.39766130201150895  0.5356368570934129  1.0000
  H   H19       1.0  0.8065834703875813  0.3028243701203386  0.30238200309426255  1.0000
  H   H20       1.0  0.8073582456193785  0.29993330760732206  0.8854757889519398  1.0000
  H   H21       1.0  0.9973654252338586  0.4460807773786759  0.08676066698082607  1.0000
  H   H22       1.0  0.9338212002823244  0.3979930102753959  0.6426651061142268  1.0000
  H   H23       1.0  0.6778311631120002  0.359360487898325  0.9313756649313008  1.0000
  H   H24       1.0  0.5526417225786106  0.2625985206779351  0.9363188928595401  1.0000
  H   H25       1.0  0.6213753001068129  0.006004272675122824  0.268273567240519  1.0000
  H   H26       1.0  0.747358261706041  0.09980752466722453  0.2634867712386906  1.0000
  H   H27       1.0  0.48015031847454614  0.16687377331713837  0.30774993962492303  1.0000
  H   H28       1.0  0.38834950405236407  0.15221193950854595  0.23322145481970447  1.0000
  H   H29       1.0  0.4511765947076161  0.275025141187045  0.167425100524222  1.0000
  Zn  Zn1       1.0  0.8238334015147454  0.3810366398551561  0.5881234604102206  1.0000
  Zn  Zn2       1.0  0.9892048003464881  0.37304075394893177  0.5922377352884698  1.0000
  C   C39       1.0  0.9065012111615829  0.3719354687431735  0.8273650335123492  1.0000
  C   C40       1.0  0.9065387968458632  0.3821434763734475  0.35299633461553825  1.0000
  C   C41       1.0  0.9065635072143615  0.6142252864795319  0.5850118702458269  1.0000
  C   C42       1.0  0.9064764440666869  0.1398521011119056  0.5953495656746852  1.0000
  O   O2        1.0  0.969291604652525  0.38085442404600256  0.40294134672333004  1.0000
  O   O3        1.0  0.9692614684813845  0.3671548488648406  0.7805422869860466  1.0000
  O   O4        1.0  0.9693109272222646  0.5628069821643291  0.5848403719451676  1.0000
  O   O5        1.0  0.9692420894910618  0.18520230273622795  0.5986431629903304  1.0000
  O   O6        1.0  0.8437960559370301  0.568875093797875  0.581718031297529  1.0000
  O   O7        1.0  0.8437465974894061  0.3732245207535856  0.7774198771349528  1.0000
  O   O8        1.0  0.843776733826392  0.3869240502154867  0.3998173755435175  1.0000
  O   O9        1.0  0.8437272186523703  0.19127191964601375  0.5955192891735663  1.0000
