data_image0
_chemical_formula_structural       NC9NC3OCH8C12NH11C13F3H9Zn2C4O8
_chemical_formula_sum              "N3 C42 O9 H28 F3 Zn2"
_cell_length_a       17.728193572023454
_cell_length_b       10.299770795358612
_cell_length_c       10.2985328690268
_cell_angle_alpha    85.57387741516429
_cell_angle_beta     90.71056303588647
_cell_angle_gamma    88.47103896228896

_space_group_name_H-M_alt    "P 1"
_space_group_IT_number       1

loop_
  _space_group_symop_operation_xyz
  'x, y, z'

loop_
  _atom_site_type_symbol
  _atom_site_label
  _atom_site_symmetry_multiplicity
  _atom_site_fract_x
  _atom_site_fract_y
  _atom_site_fract_z
  _atom_site_occupancy
  N   N1        1.0  0.7107689939686904  0.3864762975281635  0.5849800985049707  1.0000
  C   C1        1.0  0.650147820081132  0.34905269970353703  0.5979887850011587  1.0000
  C   C2        1.0  0.5746828119289845  0.30253017908764845  0.6141792586275976  1.0000
  C   C3        1.0  0.5627522313492251  0.17449664572238954  0.6236084949035765  1.0000
  C   C4        1.0  0.4860299545946907  0.12505029820616897  0.6385635426438843  1.0000
  C   C5        1.0  0.42790393521431447  0.20772428229413342  0.6560296507641217  1.0000
  C   C6        1.0  0.3498448941266799  0.16268344805899715  0.677768546551764  1.0000
  C   C7        1.0  0.288523388218162  0.24814037559446978  0.6422985507801278  1.0000
  C   C8        1.0  0.2142396658433353  0.20884419932756582  0.6624507507397064  1.0000
  C   C9        1.0  0.1519399354704075  0.2968372825620058  0.6249060730521603  1.0000
  N   N2        1.0  0.1018643597371867  0.3675751958630449  0.5947237012281932  1.0000
  C   C10       1.0  0.2006460167823943  0.08397155946505297  0.7191271277216229  1.0000
  C   C11       1.0  0.2610690181577482  0.9988325992121136  0.756005782631477  1.0000
  C   C12       1.0  0.3352489888529644  0.03763919394655324  0.7359832082887812  1.0000
  O   O1        1.0  0.44129454143203434  0.3415078267133078  0.6547257502934827  1.0000
  C   C13       1.0  0.5090308553753403  0.3988729670375084  0.6061086707352659  1.0000
  H   H1        1.0  0.6096614066939621  0.10503617316062908  0.6215114656121141  1.0000
  H   H2        1.0  0.4783508646429328  0.021401797627186525  0.636587257222506  1.0000
  H   H3        1.0  0.2984365958343149  0.34495132331729095  0.5978623123526652  1.0000
  H   H4        1.0  0.1434243864293355  0.052688465811433494  0.7352705428397015  1.0000
  H   H5        1.0  0.2504193073932574  0.9026806465381323  0.800903154160254  1.0000
  H   H6        1.0  0.3807647102202084  0.9704191444932354  0.7684102271412574  1.0000
  H   H7        1.0  0.4995644916625653  0.43477126083328765  0.5025717367238804  1.0000
  H   H8        1.0  0.521937809412738  0.4832746194456681  0.6626903834800033  1.0000
  C   C14       1.0  0.906251920932509  0.9956603563731337  0.5898898842177649  1.0000
  C   C15       1.0  0.8843413668457535  0.005854065405611175  0.4579238747954195  1.0000
  C   C16       1.0  0.8733083322890333  0.8938797845198116  0.3910222840579556  1.0000
  C   C17       1.0  0.8844794888409097  0.7705657556325156  0.4578587579912483  1.0000
  C   C18       1.0  0.9063886773100677  0.7583808209546418  0.5898252839792348  1.0000
  C   C19       1.0  0.9171525685536094  0.8714885713062828  0.6551017361769813  1.0000
  C   C20       1.0  0.8501285681528084  0.905717526229002  0.2514099137686663  1.0000
  C   C21       1.0  0.795176471622769  0.9995372652078325  0.20485034968846638  1.0000
  C   C22       1.0  0.773392035309351  0.010548158276104447  0.07344693196499708  1.0000
  C   C23       1.0  0.8061474717895116  0.9281780380355419  0.9865125154027292  1.0000
  C   C24       1.0  0.8609184298866916  0.8345648606173508  0.0321769418849418  1.0000
  C   C25       1.0  0.8827633170312872  0.8232950110436849  0.16355189042225193  1.0000
  N   N3        1.0  0.7838326637873742  0.9395736991380798  0.8521111576461666  1.0000
  H   H9        1.0  0.9145687631350072  0.3192298959003177  0.6401913859364685  1.0000
  H   H10       1.0  0.8768049067338174  0.10110778717793645  0.40638006846652375  1.0000
  H   H11       1.0  0.8750487891536416  0.6839770658625867  0.4072079321286526  1.0000
  H   H12       1.0  0.9340549949373875  0.86285657813077  0.7569076532600219  1.0000
  H   H13       1.0  0.9147699024445238  0.42628376507389887  0.6400967659492363  1.0000
  H   H14       1.0  0.7683356670774958  0.06326591864971975  0.270389781605588  1.0000
  H   H15       1.0  0.7308439891414528  0.0830754773684157  0.039472897574476695  1.0000
  H   H16       1.0  0.8868259181891104  0.7705355460272444  0.9659249335105642  1.0000
  H   H17       1.0  0.9258898024649143  0.7512495652031833  0.19610068660816848  1.0000
  H   H18       1.0  0.8079288982350018  0.8785934871056842  0.7865669650396407  1.0000
  H   H19       1.0  0.7430508911088136  0.009075322462988922  0.8171578838685978  1.0000
  C   C26       1.0  0.9062985905697668  0.37689968810167995  0.20845959553592786  1.0000
  C   C27       1.0  0.981961761561592  0.332351690920746  0.21256139443100808  1.0000
  C   C28       1.0  0.02030087837068284  0.30989755232062355  0.09746894122330318  1.0000
  C   C29       1.0  0.982006358390677  0.33260515200965424  0.9772618062033502  1.0000
  C   C30       1.0  0.906342009386068  0.37714150130666346  0.9712556297785935  1.0000
  C   C31       1.0  0.8689713298689377  0.398999186718789  0.08736395654615903  1.0000
  C   C32       1.0  0.10029487018167371  0.2628118839744389  0.10273995647410383  1.0000
  C   C33       1.0  0.15241207128816403  0.31489350667276494  0.012491857517808347  1.0000
  C   C34       1.0  0.22769716032103982  0.2706816998293038  0.017474067074154442  1.0000
  C   C35       1.0  0.2522347741389348  0.1720999005309123  0.1115655730242795  1.0000
  C   C36       1.0  0.2005547259298337  0.12181619319734227  0.20340172789437738  1.0000
  C   C37       1.0  0.12527455516024033  0.16606081726900723  0.19853055890535187  1.0000
  C   C38       1.0  0.33404639711793793  0.12785957432813277  0.11989091437634225  1.0000
  F   F1        1.0  0.3727617032016688  0.20530296184313324  0.20033306857387223  1.0000
  F   F2        1.0  0.3661866439687538  0.13747943209159885  0.9978334399822746  1.0000
  F   F3        1.0  0.341012141458511  0.9994020147488246  0.16996196215384662  1.0000
  H   H20       1.0  0.7634673198260673  0.4618904016199321  0.40797416387075747  1.0000
  H   H21       1.0  0.011511814348905691  0.31676405728809187  0.3053778595993726  1.0000
  H   H22       1.0  0.010985193463004084  0.3138231505658695  0.8883546448554918  1.0000
  H   H23       1.0  0.8106559806949444  0.4333279717830867  0.08346948920121067  1.0000
  H   H24       1.0  0.7632254161937726  0.460562470994468  0.7526339850911499  1.0000
  H   H25       1.0  0.1352290094871249  0.39148807817131304  0.939327727659427  1.0000
  H   H26       1.0  0.2668293334703604  0.3140167159409175  0.947959678581991  1.0000
  H   H27       1.0  0.21834162893009434  0.04808396994993047  0.27902352208222503  1.0000
  H   H28       1.0  0.08641435796782604  0.12366668219320509  0.2690713153272932  1.0000
  Zn  Zn1       1.0  0.8236306796723278  0.3810183799306963  0.5877993923584848  1.0000
  Zn  Zn2       1.0  0.9890026983335296  0.37302251321525937  0.5919150467518428  1.0000
  C   C39       1.0  0.9063311930557553  0.3719222295581883  0.8270712340991999  1.0000
  C   C40       1.0  0.9063039911084755  0.3821202149172642  0.3526433772914399  1.0000
  C   C41       1.0  0.9063586529408675  0.614208957723134  0.5846618703948454  1.0000
  C   C42       1.0  0.9062764745176217  0.13983192921523746  0.5950528089673763  1.0000
  O   O2        1.0  0.969063621801105  0.38083221597246086  0.40259464145657886  1.0000
  O   O3        1.0  0.9690850978819828  0.36714057084621654  0.7802432825972185  1.0000
  O   O4        1.0  0.9691064261579441  0.5627902093063994  0.5844959851501492  1.0000
  O   O5        1.0  0.9690422370909981  0.18518258949998923  0.5983418401163703  1.0000
  O   O6        1.0  0.8435910844815055  0.5688583063759747  0.5813725975826547  1.0000
  O   O7        1.0  0.8435697564779318  0.3732102281828813  0.7771198256468401  1.0000
  O   O8        1.0  0.8435482803502398  0.3869018275561984  0.39946962299146205  1.0000
  O   O9        1.0  0.8435268956409245  0.1912521918260237  0.5952169190272285  1.0000
