data_image0
_chemical_formula_structural       NC9NC3OCH8C12OCH12C13NH13Zn2C4O8
_chemical_formula_sum              "N3 C43 O10 H33 Zn2"
_cell_length_a       17.728193572023454
_cell_length_b       10.29979075500242
_cell_length_c       10.299780419254978
_cell_angle_alpha    85.56841767701755
_cell_angle_beta     90.69152596638011
_cell_angle_gamma    88.43583692371088

_space_group_name_H-M_alt    "P 1"
_space_group_IT_number       1

loop_
  _space_group_symop_operation_xyz
  'x, y, z'

loop_
  _atom_site_type_symbol
  _atom_site_label
  _atom_site_symmetry_multiplicity
  _atom_site_fract_x
  _atom_site_fract_y
  _atom_site_fract_z
  _atom_site_occupancy
  N   N1        1.0  0.7105449205458361  0.38662182131855993  0.5851375896975539  1.0000
  C   C1        1.0  0.6499346199677019  0.34919651029818133  0.5981450063515683  1.0000
  C   C2        1.0  0.5744831251595048  0.3026718582858501  0.614333899152758  1.0000
  C   C3        1.0  0.5625964643834137  0.17463554827733718  0.6237629429303868  1.0000
  C   C4        1.0  0.4858889818873578  0.12518713353350486  0.6387165771725651  1.0000
  C   C5        1.0  0.4277300898027875  0.20786083918648024  0.6561800214620133  1.0000
  C   C6        1.0  0.3496829698880794  0.16281740817167423  0.6779166689799341  1.0000
  C   C7        1.0  0.2883377391516437  0.2482787547278329  0.6424502552432698  1.0000
  C   C8        1.0  0.21406419027190762  0.20898020859195787  0.6626003533057525  1.0000
  C   C9        1.0  0.1517402267790639  0.2969779318677741  0.6250594849335778  1.0000
  N   N2        1.0  0.1016451699823541  0.36771957532030375  0.5948801754405808  1.0000
  C   C10       1.0  0.20050428025971123  0.08410068531838522  0.7192709224365794  1.0000
  C   C11       1.0  0.2609506230245738  0.9989571870057051  0.7561458262774872  1.0000
  C   C12       1.0  0.33512057024104414  0.037766132763260796  0.7361253420201539  1.0000
  O   O1        1.0  0.4410731659435344  0.3416465331787588  0.6548753102298079  1.0000
  C   C13       1.0  0.5087983066397052  0.3990168213703742  0.606263571552264  1.0000
  H   H1        1.0  0.6095308488249362  0.10517420359925378  0.6216666629413219  1.0000
  H   H2        1.0  0.4782472879218926  0.021537230204344393  0.6367412733905324  1.0000
  H   H3        1.0  0.2982248847299523  0.3450950826499175  0.5980185782603282  1.0000
  H   H4        1.0  0.1432907296083729  0.05281569620535498  0.7354126523638642  1.0000
  H   H5        1.0  0.2503266505959378  0.9027998236046921  0.8010385770244046  1.0000
  H   H6        1.0  0.3806540862489277  0.9705422092757259  0.7685490074697099  1.0000
  H   H7        1.0  0.4993389582617312  0.43492476608686403  0.5027386340355957  1.0000
  H   H8        1.0  0.5216642769683844  0.4834147818514545  0.6628379779664235  1.0000
  C   C14       1.0  0.9061664841283583  0.9957995039116698  0.5900496135575279  1.0000
  C   C15       1.0  0.8843038940837927  0.985717136054894  0.7209381604819323  1.0000
  C   C16       1.0  0.8731660717490307  0.8634749256039292  0.7872257408876053  1.0000
  C   C17       1.0  0.8841683243608667  0.7504413814914236  0.7208690007118712  1.0000
  C   C18       1.0  0.9060308810313159  0.7585315360006155  0.5899795204761644  1.0000
  C   C19       1.0  0.9169092994785342  0.8816577268306668  0.5253034344128833  1.0000
  C   C20       1.0  0.8500412873648721  0.8538622330813517  0.9256998452736305  1.0000
  C   C21       1.0  0.7949722531220156  0.7656668275308335  0.9693919088867646  1.0000
  C   C22       1.0  0.7732757960434317  0.7568899765233491  0.09958559832747549  1.0000
  C   C23       1.0  0.8061599476727539  0.8356639368001352  0.18774967378837726  1.0000
  C   C24       1.0  0.8614296337040737  0.9244591150298911  0.1459342443832089  1.0000
  C   C25       1.0  0.8828922121454945  0.9328859735485603  0.015208048839940869  1.0000
  O   O2        1.0  0.8963010382070467  0.005490934951573712  0.23066821227883827  1.0000
  C   C26       1.0  0.8801037748558771  0.007278631817981607  0.3655957732210552  1.0000
  H   H9        1.0  0.9145300907701983  0.3270912045348271  0.5401975724487402  1.0000
  H   H10       1.0  0.8748861841521803  0.07320878678574738  0.7711304357830167  1.0000
  H   H11       1.0  0.8766382884931815  0.6559155233938673  0.7720473773969483  1.0000
  H   H12       1.0  0.9337759447955182  0.8886674231110339  0.4243284649459296  1.0000
  H   H13       1.0  0.914323965288884  0.43416460176360766  0.5400880889134498  1.0000
  H   H14       1.0  0.7679891435843866  0.7047286304141224  0.9025126862611201  1.0000
  H   H15       1.0  0.7306504983169643  0.6889868157375604  0.13220131149468295  1.0000
  H   H16       1.0  0.7882623247738545  0.826799662904167  0.28796665816936107  1.0000
  H   H17       1.0  0.9261262019010684  0.00033380937035043523  0.9841202996952649  1.0000
  H   H18       1.0  0.8931329737469056  0.9101300347957308  0.4165410282098789  1.0000
  H   H19       1.0  0.9157093893297574  0.08020526770718073  0.40869547102211357  1.0000
  H   H20       1.0  0.8198582288644964  0.03510391309824268  0.378529959990482  1.0000
  C   C27       1.0  0.9061500732063559  0.37707817690579026  0.2086617237985735  1.0000
  C   C28       1.0  0.9607702965887195  0.4734671762182665  0.20135212769948696  1.0000
  C   C29       1.0  0.9883885915915781  0.5224063433436008  0.08050291910673413  1.0000
  C   C30       1.0  0.9606666198683419  0.473644419119821  0.9660493541172746  1.0000
  C   C31       1.0  0.9060472934536209  0.3772528571184359  0.9713674194282667  1.0000
  C   C32       1.0  0.8790927969407926  0.3295130277836167  0.09313547827663138  1.0000
  C   C33       1.0  0.04617464294465101  0.6243749298603827  0.07386163422176706  1.0000
  C   C34       1.0  0.04105460516350812  0.7291997166569106  0.9778986525258233  1.0000
  C   C35       1.0  0.09546863254436566  0.8250861413083312  0.9717340161916392  1.0000
  C   C36       1.0  0.15562501614936108  0.8184756447032218  0.06190735065612252  1.0000
  C   C37       1.0  0.1614685396833817  0.713337054661221  0.15683160675627383  1.0000
  C   C38       1.0  0.10707012020208717  0.6174251767634655  0.1631694047240877  1.0000
  C   C39       1.0  0.2151988304549748  0.9198138244633538  0.05292682913324387  1.0000
  N   N3        1.0  0.2730559013746776  0.8843657166805656  0.9614930649660813  1.0000
  H   H21       1.0  0.8853678884224513  0.3403011096343105  0.5389046091854366  1.0000
  H   H22       1.0  0.9812196454098829  0.5119845741112121  0.28972796266645173  1.0000
  H   H23       1.0  0.9825368372759257  0.5097422832897496  0.8727834115954196  1.0000
  H   H24       1.0  0.8369560333181376  0.25515224520595536  0.09800594111574945  1.0000
  H   H25       1.0  0.8852205029921437  0.3405469402895196  0.6459381777830129  1.0000
  H   H26       1.0  0.9945118259911409  0.737795564974171  0.9084369795222687  1.0000
  H   H27       1.0  0.09059402218348311  0.9047215729574893  0.8967663850255327  1.0000
  H   H28       1.0  0.20829142699394732  0.705379925589307  0.225773676058719  1.0000
  H   H29       1.0  0.11326018605994759  0.5367090133255215  0.2367040061726049  1.0000
  H   H30       1.0  0.18910636451008322  0.016101084994959436  0.01898800704405046  1.0000
  H   H31       1.0  0.24122161221607796  0.9298664216289916  0.15043077078730183  1.0000
  H   H32       1.0  0.31112375459751695  0.9602170716240108  0.9524950585235854  1.0000
  H   H33       1.0  0.3033459619921872  0.8025986708003938  0.0030271009646187785  1.0000
  Zn  Zn1       1.0  0.8234080153721219  0.38116357277892887  0.58795658920974  1.0000
  Zn  Zn2       1.0  0.9887821012035048  0.3731672225178355  0.5920718141226657  1.0000
  C   C40       1.0  0.9060659363878708  0.3720462428237279  0.8272001744357687  1.0000
  C   C41       1.0  0.9061259857590762  0.38228610381097927  0.3528284011453664  1.0000
  C   C42       1.0  0.9060533073112469  0.6143579734177631  0.5848177564138539  1.0000
  C   C43       1.0  0.9061385586731997  0.13997281565019515  0.5952108871420525  1.0000
  O   O3        1.0  0.968876506517912  0.3809936926318689  0.40277376196991765  1.0000
  O   O4        1.0  0.9688305205037817  0.36726862936406546  0.7803778003599768  1.0000
  O   O5        1.0  0.9688194761666858  0.5629384574856575  0.5846522617345931  1.0000
  O   O6        1.0  0.9688874944355073  0.1853238765068581  0.5984992018196305  1.0000
  O   O7        1.0  0.8433025657060613  0.5690069215200799  0.5815292001016199  1.0000
  O   O8        1.0  0.8433136097715987  0.3733386536954111  0.7772546693410773  1.0000
  O   O9        1.0  0.8433595960544188  0.3870636713469091  0.3996490696214423  1.0000
  O   O10       1.0  0.8433705839574558  0.19139384595549136  0.5953746068356713  1.0000
