data_image0
_chemical_formula_structural       NC9NC3OCH8C16H10C13NH13Zn2C4O8
_chemical_formula_sum              "N3 C46 O9 H31 Zn2"
_cell_length_a       17.728193572023454
_cell_length_b       10.29914801576943
_cell_length_c       10.299780419254978
_cell_angle_alpha    85.54946318164076
_cell_angle_beta     90.69152596638011
_cell_angle_gamma    88.46752555428026

_space_group_name_H-M_alt    "P 1"
_space_group_IT_number       1

loop_
  _space_group_symop_operation_xyz
  'x, y, z'

loop_
  _atom_site_type_symbol
  _atom_site_label
  _atom_site_symmetry_multiplicity
  _atom_site_fract_x
  _atom_site_fract_y
  _atom_site_fract_z
  _atom_site_occupancy
  N   N1        1.0  0.710986943030776  0.3867225880282672  0.5846883246982637  1.0000
  C   C1        1.0  0.6503647121420677  0.3492945572861932  0.5977078671403413  1.0000
  C   C2        1.0  0.5748983863670006  0.30276652429713713  0.6139118339129861  1.0000
  C   C3        1.0  0.5629709106210002  0.17472090980669286  0.6233823614115841  1.0000
  C   C4        1.0  0.48624766513115236  0.1252689016143962  0.6383520169233492  1.0000
  C   C5        1.0  0.42811512748313424  0.20794861521933794  0.6557886749602373  1.0000
  C   C6        1.0  0.35005364878003764  0.16290191086910077  0.6775399165345124  1.0000
  C   C7        1.0  0.2887356611146328  0.24836946795690396  0.642045813350582  1.0000
  C   C8        1.0  0.21444958478094311  0.2090680659701185  0.6622086441286692  1.0000
  C   C9        1.0  0.1521536728964856  0.2970721840977246  0.6246392645240324  1.0000
  N   N2        1.0  0.10208116687501022  0.36781896839149897  0.5944370347625763  1.0000
  C   C10       1.0  0.2008498661083414  0.08417946762035955  0.7189196741826342  1.0000
  C   C11       1.0  0.2612690671247314  0.9990297818742743  0.7558221644880856  1.0000
  C   C12       1.0  0.3354513857220483  0.037841547903161965  0.7357891061455042  1.0000
  O   O1        1.0  0.44150085136243444  0.3417440315050222  0.6544406172086041  1.0000
  C   C13       1.0  0.5092442803596822  0.3991184888327979  0.6058102905771661  1.0000
  H   H1        1.0  0.609883152416482  0.10525451732750901  0.6213085868746098  1.0000
  H   H2        1.0  0.47857293000974327  0.02161146597934005  0.6364102956748015  1.0000
  H   H3        1.0  0.2986536694654672  0.3451928315845141  0.5975827679102668  1.0000
  H   H4        1.0  0.14362634253690582  0.05289220500682079  0.735071540435769  1.0000
  H   H5        1.0  0.2506144419859892  0.9028654306551154  0.8007460701880962  1.0000
  H   H6        1.0  0.3809634723212419  0.9706127392093798  0.7682345521234448  1.0000
  H   H7        1.0  0.4997963785915255  0.4350290430029873  0.502273718898602  1.0000
  H   H8        1.0  0.5221371547768748  0.4835225825685645  0.6623573520807857  1.0000
  C   C14       1.0  0.9064839216332737  0.9958718693093543  0.5897269748563769  1.0000
  C   C15       1.0  0.8892714454821482  0.006274208666940284  0.4558293477699127  1.0000
  C   C16       1.0  0.8805998322744253  0.8944159384085304  0.3877771943164119  1.0000
  C   C17       1.0  0.8893722373951953  0.7710174355790844  0.45542728626380913  1.0000
  C   C18       1.0  0.9065914287425444  0.7586593475489859  0.5894098302013284  1.0000
  C   C19       1.0  0.9150425977549999  0.8716076268021871  0.6557347326506879  1.0000
  C   C20       1.0  0.8623912946104958  0.9064659555776619  0.24612965759729  1.0000
  C   C21       1.0  0.8981064968906736  0.823736400775234  0.16180568049016664  1.0000
  C   C22       1.0  0.8809428848074286  0.8352039126739952  0.028491820023928804  1.0000
  C   C23       1.0  0.8278878910385404  0.9293094197733042  0.97769336289101  1.0000
  C   C24       1.0  0.7920352596054403  0.01202565912419229  0.06073002543695827  1.0000
  C   C25       1.0  0.8091450640469676  0.0008020181921917224  0.1940634903829066  1.0000
  C   C26       1.0  0.8102457867404463  0.9409901808675364  0.8404349889758334  1.0000
  C   C27       1.0  0.7954707145084885  0.9507727056595273  0.7254830848678138  1.0000
  C   C28       1.0  0.7781692794303442  0.9622279113653768  0.5908755779364658  1.0000
  C   C29       1.0  0.7633966869835238  0.9720089430615456  0.4759422426556319  1.0000
  H   H9        1.0  0.9130657656693915  0.31934716278390907  0.6412428637786609  1.0000
  H   H10       1.0  0.8835855516214522  0.10159330040480974  0.4037796373569478  1.0000
  H   H11       1.0  0.881738440343266  0.6844822016237789  0.4038235824462726  1.0000
  H   H12       1.0  0.9283168150659351  0.8628682515990657  0.7590142099788493  1.0000
  H   H13       1.0  0.9386243954958426  0.5280501683924073  0.8424614390976213  1.0000
  H   H14       1.0  0.9400225215182942  0.7513133468075257  0.19869875350096122  1.0000
  H   H15       1.0  0.9091847950333916  0.7709022395159989  0.9650235445555029  1.0000
  H   H16       1.0  0.7507196514043757  0.0849837518147194  0.02248208166466248  1.0000
  H   H17       1.0  0.7800235536258855  0.06475622869669007  0.2567070854291087  1.0000
  H   H18       1.0  0.7504251615654951  0.980597512289359  0.3750210844627717  1.0000
  C   C30       1.0  0.9065890534014993  0.3771782500726504  0.20821555093683242  1.0000
  C   C31       1.0  0.9612400033340595  0.4735742540364045  0.20087472483469693  1.0000
  C   C32       1.0  0.9888738989945245  0.5225169776028475  0.08000965996841258  1.0000
  C   C33       1.0  0.9611363831145583  0.47375150981831626  0.9655718938258446  1.0000
  C   C34       1.0  0.906486329332715  0.3773529429794207  0.9709211899701966  1.0000
  C   C35       1.0  0.8795166144830131  0.3296096443601506  0.0927047165070558  1.0000
  C   C36       1.0  0.04669245553921075  0.6244929742431387  0.07333533729603725  1.0000
  C   C37       1.0  0.04160583343928037  0.7293253787251082  0.9773383924047634  1.0000
  C   C38       1.0  0.09605042716133139  0.8252187715053794  0.9711426889015495  1.0000
  C   C39       1.0  0.15620470349519366  0.8186077945111814  0.06131816516468902  1.0000
  C   C40       1.0  0.16201471131489442  0.7134615639794535  0.1562764861323147  1.0000
  C   C41       1.0  0.1075857173785093  0.6175427161031433  0.16264535951600134  1.0000
  C   C42       1.0  0.2158108220335464  0.9199533385827539  0.05230481010597687  1.0000
  N   N3        1.0  0.27365659292865163  0.8845026547629151  0.9608825311136995  1.0000
  H   H19       1.0  0.8857951449519097  0.34039851018776934  0.5384703520810046  1.0000
  H   H20       1.0  0.9817016305974547  0.5120944510137095  0.28923808017782293  1.0000
  H   H21       1.0  0.9830181076738225  0.5098519972435143  0.8722942556082551  1.0000
  H   H22       1.0  0.8373561463885321  0.2552434579360501  0.0975992722144805  1.0000
  H   H23       1.0  0.885647837886644  0.34064435870765264  0.645503841029532  1.0000
  H   H24       1.0  0.9950657944215647  0.7379218517082571  0.907873934349273  1.0000
  H   H25       1.0  0.09120120270657384  0.9048599903131553  0.8961492558826292  1.0000
  H   H26       1.0  0.20883506207950986  0.7055038566577936  0.225221133541877  1.0000
  H   H27       1.0  0.11375005281832107  0.536820686969099  0.23620611297406602  1.0000
  H   H28       1.0  0.189749050206917  0.016247596372213735  0.01833479097706503  1.0000
  H   H29       1.0  0.24183680832663623  0.9300066662771664  0.1498054947219658  1.0000
  H   H30       1.0  0.3117486257827955  0.9603595218736631  0.9518599488579569  1.0000
  H   H31       1.0  0.30392058813146017  0.8027296668183328  0.0024430596073385935  1.0000
  Zn  Zn1       1.0  0.8238482978955627  0.3812639428341642  0.5875090926811235  1.0000
  Zn  Zn2       1.0  0.9892198346782012  0.3732670114730965  0.5916269084088188  1.0000
  C   C43       1.0  0.9065033125205562  0.3721459503166653  0.826755631918962  1.0000
  C   C44       1.0  0.9065666261190578  0.3823865554412751  0.3523805409170764  1.0000
  C   C45       1.0  0.9065679267352468  0.6144752898617787  0.5842947049786098  1.0000
  C   C46       1.0  0.9065019552453512  0.14005565821622357  0.5948415363368511  1.0000
  O   O2        1.0  0.9693167348875499  0.3810940503418043  0.40232632048241124  1.0000
  O   O3        1.0  0.969266373645453  0.36736798966472484  0.7799348057883091  1.0000
  O   O4        1.0  0.9693177042561073  0.5630520372400034  0.5841458702050517  1.0000
  O   O5        1.0  0.9692653478612189  0.18541001476397834  0.5981151572861103  1.0000
  O   O6        1.0  0.8438027282793567  0.569120942273655  0.5810208423917924  1.0000
  O   O7        1.0  0.8437513978945297  0.3734384551086871  0.776809708083587  1.0000
  O   O8        1.0  0.8438017593907747  0.38716447016614564  0.3991996614628932  1.0000
  O   O9        1.0  0.8437503723469321  0.19148042532123966  0.594988595634111  1.0000
