data_image0
_chemical_formula_structural       NC9NC3OCH8C12ClH9C12NCOH11Zn2C4O8
_chemical_formula_sum              "N3 C42 O10 H28 Cl1 Zn2"
_cell_length_a       17.728193572023454
_cell_length_b       10.299768534541528
_cell_length_c       10.299148425239203
_cell_angle_alpha    85.5385229165027
_cell_angle_beta     90.68912747422073
_cell_angle_gamma    88.47167022583639

_space_group_name_H-M_alt    "P 1"
_space_group_IT_number       1

loop_
  _space_group_symop_operation_xyz
  'x, y, z'

loop_
  _atom_site_type_symbol
  _atom_site_label
  _atom_site_symmetry_multiplicity
  _atom_site_fract_x
  _atom_site_fract_y
  _atom_site_fract_z
  _atom_site_occupancy
  N   N1        1.0  0.7110703647450238  0.3874808297584247  0.5851440011361544  1.0000
  C   C1        1.0  0.650446240082077  0.3500482103042857  0.5981484769152017  1.0000
  C   C2        1.0  0.5749775598239859  0.3035144609926501  0.6143337158985078  1.0000
  C   C3        1.0  0.563044103602648  0.17547526067827057  0.6237488435757019  1.0000
  C   C4        1.0  0.4863183876753089  0.12601859724312514  0.6386983467711096  1.0000
  C   C5        1.0  0.4281893769873378  0.2086793193981289  0.6561733656033131  1.0000
  C   C6        1.0  0.3501255326060884  0.16362325779982134  0.6779071421016323  1.0000
  C   C7        1.0  0.288811951308017  0.24910492742431556  0.6424468103453944  1.0000
  C   C8        1.0  0.2145237941678399  0.2097946139798159  0.6625945339016932  1.0000
  C   C9        1.0  0.1522324339460047  0.2978139077830193  0.6250598156908327  1.0000
  N   N2        1.0  0.1021635870215287  0.368572891905498  0.5948854503219017  1.0000
  C   C10       1.0  0.2009175678809459  0.08488233858446392  0.7192567484382519  1.0000
  C   C11       1.0  0.2613323570296499  0.9997176215454836  0.7561257622411395  1.0000
  C   C12       1.0  0.33551673223517847  0.03853826456968856  0.7361076095599584  1.0000
  O   O1        1.0  0.4415812284306383  0.34246264400559845  0.6548841349421473  1.0000
  C   C13       1.0  0.5093279678706197  0.3998622138233665  0.6062737527178532  1.0000
  H   H1        1.0  0.6099532033886371  0.10601689503138156  0.6216442212091766  1.0000
  H   H2        1.0  0.47863894768131277  0.02237241238086085  0.636710721243573  1.0000
  H   H3        1.0  0.298735011919458  0.34594696022779603  0.5980215559469968  1.0000
  H   H4        1.0  0.14369238638177553  0.05358791830225851  0.735396599107458  1.0000
  H   H5        1.0  0.2506727031687352  0.9035342468266886  0.8010122180415993  1.0000
  H   H6        1.0  0.38102528847462597  0.9712955013816494  0.7685269884000427  1.0000
  H   H7        1.0  0.4998831768138075  0.43583457584494534  0.5027416290783533  1.0000
  H   H8        1.0  0.5222238922281726  0.4842224896129672  0.6628642341633426  1.0000
  C   C14       1.0  0.9065494275222907  0.9966647399696194  0.5900109232609259  1.0000
  C   C15       1.0  0.9115400048594817  0.006046125578292649  0.4536568579884621  1.0000
  C   C16       1.0  0.9141413175221255  0.8936568705749418  0.38457436509448883  1.0000
  C   C17       1.0  0.9116841322392292  0.770751433629802  0.45367593897718805  1.0000
  C   C18       1.0  0.9066917796324544  0.7593786048372901  0.590029897976792  1.0000
  C   C19       1.0  0.9041529404692319  0.8728913127219008  0.6574338208722255  1.0000
  C   C20       1.0  0.9194219356884428  0.9046352137772581  0.2403231560590624  1.0000
  C   C21       1.0  0.8765015630826448  0.000281417007061302  0.16478512749908103  1.0000
  C   C22       1.0  0.88153906787398  0.010415497607731083  0.02902145018475699  1.0000
  C   C23       1.0  0.929424322603575  0.9254297270001955  0.96710201760364  1.0000
  C   C24       1.0  0.9723325541024983  0.8300969859772653  0.04112841863458172  1.0000
  C   C25       1.0  0.9674290597935775  0.8195641691071323  0.17691007819244664  1.0000
  Cl  Cl1       1.0  0.9356605375363483  0.9383945475058643  0.7967605532639572  1.0000
  H   H9        1.0  0.9046090520809357  0.32054559386224546  0.6419643165476898  1.0000
  H   H10       1.0  0.914457321992109  0.10093946357631434  0.4009932838919401  1.0000
  H   H11       1.0  0.912632104813718  0.683893915877099  0.4007497418928092  1.0000
  H   H12       1.0  0.9003021755180932  0.8648858538095143  0.7626246864305679  1.0000
  H   H13       1.0  0.9048195055749557  0.4275898241753199  0.641992789071745  1.0000
  H   H14       1.0  0.8383390878246338  0.06608284197204073  0.21058126894304463  1.0000
  H   H15       1.0  0.8480419231609709  0.08417230211701243  0.9720714518507929  1.0000
  H   H16       1.0  0.009653684106120552  0.764290327092987  0.9936217258489908  1.0000
  H   H17       1.0  0.001884028052009823  0.7460549901377198  0.23238952565354798  1.0000
  C   C26       1.0  0.906677388924985  0.37817478678630634  0.20862563801768763  1.0000
  C   C27       1.0  0.9832490192260052  0.4100313998302423  0.2065641945186958  1.0000
  C   C28       1.0  0.021952529066464166  0.42597496495356  0.08838387137294168  1.0000
  C   C29       1.0  0.9830898704569481  0.40969894683547947  0.9713030685051667  1.0000
  C   C30       1.0  0.9065638009962596  0.3778686044966597  0.9714151912690534  1.0000
  C   C31       1.0  0.8688065147501225  0.3622841575725677  0.09059347659657857  1.0000
  C   C32       1.0  0.10291052105616538  0.4596533787288586  0.08729463733582565  1.0000
  C   C33       1.0  0.1536084948382983  0.39983191208632207  0.004958230488328663  1.0000
  C   C34       1.0  0.22975343609687937  0.4316636037838024  0.004081472881470205  1.0000
  C   C35       1.0  0.25698300055916246  0.5226192488208983  0.08627057219806389  1.0000
  C   C36       1.0  0.20621047947416526  0.5842905176956699  0.1670367629997449  1.0000
  C   C37       1.0  0.13003145466164034  0.5525671413646984  0.16800951505104766  1.0000
  N   N3        1.0  0.3353618046076472  0.555036549380238  0.08168818750439022  1.0000
  C   C38       1.0  0.37877599756585245  0.5896103214568451  0.19150040195113105  1.0000
  O   O2        1.0  0.35323939937869686  0.5766825117475369  0.3052242182955627  1.0000
  H   H18       1.0  0.7622721303587957  0.31727732429008304  0.4198723527203685  1.0000
  H   H19       1.0  0.01319184801085238  0.42077907534077186  0.29723667012835775  1.0000
  H   H20       1.0  0.012372328865261073  0.4236747829410925  0.8797998584481967  1.0000
  H   H21       1.0  0.8097809264226814  0.3377290409293765  0.09139507715215522  1.0000
  H   H22       1.0  0.8771320259985617  0.3655893962069101  0.6439852330750462  1.0000
  H   H23       1.0  0.13456882536810544  0.3272433311662817  0.942309649536504  1.0000
  H   H24       1.0  0.26787517161519925  0.38428304610485653  0.940075181902118  1.0000
  H   H25       1.0  0.2248223148988211  0.6590643001235745  0.22726812262022578  1.0000
  H   H26       1.0  0.09199926209867271  0.6026095980412629  0.23012551642840018  1.0000
  H   H27       1.0  0.36438404556961057  0.5446941975374215  0.9952278256392773  1.0000
  H   H28       1.0  0.4354455999743838  0.6239099730988111  0.17708882329258202  1.0000
  Zn  Zn1       1.0  0.8239314303140421  0.3820209340265599  0.5879626730817564  1.0000
  Zn  Zn2       1.0  0.9893025434852364  0.3740221798406609  0.5920774165018703  1.0000
  C   C39       1.0  0.9065826290437805  0.3727529748992242  0.8272314914934553  1.0000
  C   C40       1.0  0.9066531508897387  0.3832916901603203  0.35280877053900483  1.0000
  C   C41       1.0  0.9066617520562363  0.6152117499058078  0.5848507285632423  1.0000
  C   C42       1.0  0.9065739711461784  0.14083135758129095  0.5951896012695634  1.0000
  O   O3        1.0  0.9694024909359905  0.3819678185105546  0.40275947048482075  1.0000
  O   O4        1.0  0.9693461373402033  0.36800499764593875  0.780403412698988  1.0000
  O   O5        1.0  0.9694091839715353  0.5637935651511852  0.5846792107320127  1.0000
  O   O6        1.0  0.9693393878909333  0.18617926306388277  0.5984835736666685  1.0000
  O   O7        1.0  0.8438945294753016  0.5698638535343366  0.5815565145059667  1.0000
  O   O8        1.0  0.8438314831420306  0.3740768463325346  0.7772806472616054  1.0000
  O   O9        1.0  0.843887837012069  0.38803962256637536  0.39963514354091245  1.0000
  O   O10       1.0  0.8438247339476935  0.19225105779212748  0.5953593440968961  1.0000
