data_image0
_chemical_formula_structural       NC9NC3OCH8C12NCOCH13C12IH9Zn2C4O8
_chemical_formula_sum              "N3 C43 O10 H30 I1 Zn2"
_cell_length_a       17.728193572023454
_cell_length_b       10.299155265289647
_cell_length_c       10.29977335064465
_cell_angle_alpha    85.52787819197464
_cell_angle_beta     90.71329701694225
_cell_angle_gamma    88.43175330785003

_space_group_name_H-M_alt    "P 1"
_space_group_IT_number       1

loop_
  _space_group_symop_operation_xyz
  'x, y, z'

loop_
  _atom_site_type_symbol
  _atom_site_label
  _atom_site_symmetry_multiplicity
  _atom_site_fract_x
  _atom_site_fract_y
  _atom_site_fract_z
  _atom_site_occupancy
  N   N1        1.0  0.7101607187534946  0.3874570792296792  0.584782018652908  1.0000
  C   C1        1.0  0.6495550165096738  0.3500221125346532  0.5977978915322213  1.0000
  C   C2        1.0  0.5741092423851804  0.30348544753726325  0.613997297407054  1.0000
  C   C3        1.0  0.5622302746721862  0.17543405497648878  0.6234536820912531  1.0000
  C   C4        1.0  0.48552835605683287  0.1259740252921977  0.6384183880326222  1.0000
  C   C5        1.0  0.427369894691153  0.20864541507909173  0.655865245127895  1.0000
  C   C6        1.0  0.34932970302982025  0.1635872501747111  0.6776123456912657  1.0000
  C   C7        1.0  0.2879726508430164  0.24907359574565247  0.6421263609018155  1.0000
  C   C8        1.0  0.213705418362013  0.20976158797461952  0.6622856325365145  1.0000
  C   C9        1.0  0.15136904836003942  0.2977855752298415  0.6247245659758971  1.0000
  N   N2        1.0  0.1012640179117339  0.3685483324224774  0.5945290190923702  1.0000
  C   C10       1.0  0.20016389296163573  0.08484305496019884  0.7189850191912068  1.0000
  C   C11       1.0  0.2606223662753923  0.9996738621736554  0.7558794910808695  1.0000
  C   C12       1.0  0.3347860479546082  0.038496164005315414  0.7358499420391722  1.0000
  O   O1        1.0  0.4407068914913571  0.34244249382844627  0.6545323525029838  1.0000
  C   C13       1.0  0.5084184114699977  0.3998422590822628  0.6059063521012511  1.0000
  H   H1        1.0  0.6091671797596755  0.10596821902879694  0.621371908185326  1.0000
  H   H2        1.0  0.4778906876038919  0.02231683008535934  0.6364647823854024  1.0000
  H   H3        1.0  0.2978454294988996  0.34592042105079424  0.5976723198498131  1.0000
  H   H4        1.0  0.1429553937447941  0.0535472977810052  0.7351340566177238  1.0000
  H   H5        1.0  0.25001283797808566  0.9034858181805686  0.8007944882679434  1.0000
  H   H6        1.0  0.3803299000438026  0.9712502598166503  0.768289207116752  1.0000
  H   H7        1.0  0.49893378335182004  0.4358060683390057  0.5023691765935605  1.0000
  H   H8        1.0  0.5212937024033087  0.4842180232960742  0.6624655807229105  1.0000
  C   C14       1.0  0.9058002939167369  0.9966009406836541  0.5897764174490572  1.0000
  C   C15       1.0  0.8928963902284274  0.006975134489451529  0.45453020669699273  1.0000
  C   C16       1.0  0.8862807398229839  0.8951009640682784  0.3858379836081658  1.0000
  C   C17       1.0  0.8927159189094425  0.7717242047874501  0.45421792549742546  1.0000
  C   C18       1.0  0.9056317231091062  0.759394171435405  0.5895460230562966  1.0000
  C   C19       1.0  0.9120977535199789  0.8723537681498387  0.6564922163842524  1.0000
  C   C20       1.0  0.8726308994407462  0.9070492327273978  0.24276384674196483  1.0000
  C   C21       1.0  0.9108953180045481  0.999340475704539  0.16230020923563648  1.0000
  C   C22       1.0  0.8980561284370719  0.010453406261745846  0.027658067706958223  1.0000
  C   C23       1.0  0.8471650264431289  0.9285922765143814  0.9706394413400767  1.0000
  C   C24       1.0  0.807978789555276  0.8381619117773058  0.05101194629415384  1.0000
  C   C25       1.0  0.8208454614717599  0.826791647004763  0.18561743742343895  1.0000
  N   N3        1.0  0.8318969649558102  0.9396226482653945  0.8326984533135979  1.0000
  C   C26       1.0  0.8869906032963251  0.9739321006830287  0.7358541697634724  1.0000
  O   O2        1.0  0.9562247688264366  0.9731087695806748  0.7654379100584188  1.0000
  C   C27       1.0  0.8629024171474027  0.0015950074389683433  0.596714539653342  1.0000
  H   H9        1.0  0.9107871112206226  0.32008563851752503  0.6417927846872453  1.0000
  H   H10       1.0  0.8869207896658702  0.10232841456699737  0.40257186310245885  1.0000
  H   H11       1.0  0.8886514119734417  0.6851412151022821  0.40148840216858694  1.0000
  H   H12       1.0  0.9220533445594983  0.8636369479101201  0.7608100629184134  1.0000
  H   H13       1.0  0.9304615021694715  0.5288167631807622  0.8448511720149434  1.0000
  H   H14       1.0  0.951196626829787  0.06242546745397903  0.20339674250434303  1.0000
  H   H15       1.0  0.9270015969259281  0.08453178157867947  0.9687992567362711  1.0000
  H   H16       1.0  0.7676049758937319  0.775784798378986  0.009046573773862532  1.0000
  H   H17       1.0  0.7894751451027003  0.7564465443971845  0.2452487607232361  1.0000
  H   H18       1.0  0.77874105986767  0.9133355704984509  0.8003003987932638  1.0000
  H   H19       1.0  0.8084267785198663  0.0576760761793913  0.5909032867958333  1.0000
  H   H20       1.0  0.855914901923273  0.9083400296410488  0.5513165191844722  1.0000
  H   H21       1.0  0.9058583021899076  0.05963009765038785  0.5423900213105957  1.0000
  C   C28       1.0  0.9056799940337069  0.37810536542292605  0.20829110335106682  1.0000
  C   C29       1.0  0.9740739394153658  0.443807408860704  0.2036379278887217  1.0000
  C   C30       1.0  0.008765997260010705  0.47698955743512594  0.08415102818860332  1.0000
  C   C31       1.0  0.9741465783858279  0.4435897243600131  0.9683701883206717  1.0000
  C   C32       1.0  0.9057520005477527  0.3778897165966697  0.9710313892246796  1.0000
  C   C33       1.0  0.871901982301941  0.3455143588643703  0.09146946162591574  1.0000
  C   C34       1.0  0.0811207899060844  0.546494531406329  0.08028236788249199  1.0000
  C   C35       1.0  0.09296932426204219  0.6489485387979179  0.1603577274352046  1.0000
  C   C36       1.0  0.16110917554805515  0.7142515664431293  0.15651572904280053  1.0000
  C   C37       1.0  0.2181577942261972  0.678131310010853  0.07295802791661221  1.0000
  C   C38       1.0  0.20703701826234933  0.576528381673985  0.993043283224603  1.0000
  C   C39       1.0  0.13897377407186617  0.5109956613808331  0.9964813161685719  1.0000
  I   I1        1.0  0.32088802709469855  0.7768111954577002  0.06746927622430166  1.0000
  H   H22       1.0  0.8795968464348932  0.3531359744442899  0.5375120972415519  1.0000
  H   H23       1.0  0.0010541848444682866  0.4677518752974701  0.29327970446645635  1.0000
  H   H24       1.0  0.00013009367600269606  0.4705233260813053  0.8758965847852549  1.0000
  H   H25       1.0  0.819138743275147  0.2948293800853663  0.09429080430270376  1.0000
  H   H26       1.0  0.8797022968658491  0.3528187112054806  0.6445949781656322  1.0000
  H   H27       1.0  0.04920349055765971  0.6796445547271888  0.2246492295319189  1.0000
  H   H28       1.0  0.1694436127679182  0.7931315298140815  0.21828579467946296  1.0000
  H   H29       1.0  0.2511729932000464  0.5480508670882169  0.9284692018932343  1.0000
  H   H30       1.0  0.13195089328891507  0.43151136064260665  0.9349050072572913  1.0000
  Zn  Zn1       1.0  0.8230246955324215  0.3819969505805041  0.5876022932200082  1.0000
  Zn  Zn2       1.0  0.9884000700765967  0.37399785343528436  0.5917193854299283  1.0000
  C   C40       1.0  0.9057378460200384  0.3727564360344986  0.8268586334154815  1.0000
  C   C41       1.0  0.9056887251327531  0.3832399193553393  0.3524632171648898  1.0000
  C   C42       1.0  0.9056591927270979  0.6152116379245869  0.5844142998343367  1.0000
  C   C43       1.0  0.905767322346069  0.14078315973893996  0.594907619051293  1.0000
  O   O3        1.0  0.9684507494002383  0.3819218406539595  0.40241111233790905  1.0000
  O   O4        1.0  0.9684919046871612  0.368002405388419  0.7800351424154646  1.0000
  O   O5        1.0  0.9684275452632929  0.5637880877189447  0.5842596062445291  1.0000
  O   O6        1.0  0.9685150523814477  0.18613617037153274  0.5981865497261765  1.0000
  O   O7        1.0  0.8429096567930704  0.5698586363753704  0.5811351275119669  1.0000
  O   O8        1.0  0.842974015862063  0.3740745145022699  0.7769105939658518  1.0000
  O   O9        1.0  0.8429328604879379  0.3879939049470005  0.39928500249757626  1.0000
  O   O10       1.0  0.842997163477306  0.19220822534758963  0.5950605372567188  1.0000
