data_image0
_chemical_formula_structural       NC9NC3OCH8C12SCH12C12OCH12Zn2C4O8
_chemical_formula_sum              "N2 C43 O10 H32 S1 Zn2"
_cell_length_a       17.728193572023454
_cell_length_b       10.299776766347529
_cell_length_c       10.299794127170987
_cell_angle_alpha    85.57877721711455
_cell_angle_beta     90.69834653510783
_cell_angle_gamma    88.43488659094774

_space_group_name_H-M_alt    "P 1"
_space_group_IT_number       1

loop_
  _space_group_symop_operation_xyz
  'x, y, z'

loop_
  _atom_site_type_symbol
  _atom_site_label
  _atom_site_symmetry_multiplicity
  _atom_site_fract_x
  _atom_site_fract_y
  _atom_site_fract_z
  _atom_site_occupancy
  N   N1        1.0  0.7104365813090173  0.38651146031118144  0.585292400215607  1.0000
  C   C1        1.0  0.6498274928707044  0.34908732217521066  0.598295775535866  1.0000
  C   C2        1.0  0.5743775062016072  0.3025641295728352  0.6144796443172336  1.0000
  C   C3        1.0  0.5624926078712225  0.17452931703539143  0.6238950531022032  1.0000
  C   C4        1.0  0.4857865751375799  0.12508229186903885  0.6388433598587013  1.0000
  C   C5        1.0  0.427628146293752  0.20775671961464925  0.6563154801499098  1.0000
  C   C6        1.0  0.3495828987305438  0.16271513636555301  0.678047230599993  1.0000
  C   C7        1.0  0.28823450818106117  0.24817339127277993  0.6425900766888566  1.0000
  C   C8        1.0  0.2139626734699591  0.2088765422737202  0.6627358958068517  1.0000
  C   C9        1.0  0.1516353869100712  0.29687100886207696  0.6252045676408322  1.0000
  N   N2        1.0  0.10153765868340191  0.36761003424707095  0.5950329275497201  1.0000
  C   C10       1.0  0.2004077101513206  0.08400188414488641  0.7193929077389523  1.0000
  C   C11       1.0  0.26085730570701887  0.9988615764521129  0.756258577809745  1.0000
  C   C12       1.0  0.3350255518551958  0.03766883750855832  0.7362423198486039  1.0000
  O   O1        1.0  0.4409699619979855  0.3415414618932622  0.6550249696585273  1.0000
  C   C13       1.0  0.5086912951748725  0.39890789590546527  0.6064195821047065  1.0000
  H   H1        1.0  0.6094274581500814  0.1050682675711565  0.6217914152044908  1.0000
  H   H2        1.0  0.4781456546669808  0.021432911726431136  0.6368570703647785  1.0000
  H   H3        1.0  0.2981177849586528  0.3449859117681009  0.5981689130025922  1.0000
  H   H4        1.0  0.1431955309595082  0.05271825330721125  0.7355312307148818  1.0000
  H   H5        1.0  0.2502372276555765  0.9027080493169126  0.8011408826616426  1.0000
  H   H6        1.0  0.3805618610750367  0.9704476704785355  0.7686586768843371  1.0000
  H   H7        1.0  0.4992245937666321  0.43480818601339144  0.5028990175920383  1.0000
  H   H8        1.0  0.5215603727511954  0.4833093722588744  0.6630026345853242  1.0000
  C   C14       1.0  0.906061901780187  0.995692002035385  0.5901629340800065  1.0000
  C   C15       1.0  0.9105875775682101  0.9839513574323222  0.7267824783104573  1.0000
  C   C16       1.0  0.9128081158671718  0.8608671713706694  0.7960122375516554  1.0000
  C   C17       1.0  0.9104432756974538  0.7486705594046691  0.7267940739572971  1.0000
  C   C18       1.0  0.9059196154633548  0.7584191588692175  0.5901738305817115  1.0000
  C   C19       1.0  0.9037538262776492  0.8823677482443603  0.5226230120209994  1.0000
  C   C20       1.0  0.9175874536823369  0.8495112021674422  0.9405400933139689  1.0000
  C   C21       1.0  0.8743920748322508  0.758159960807354  0.013503152998639023  1.0000
  C   C22       1.0  0.8789126558712471  0.7477060243660448  0.14951801257743536  1.0000
  C   C23       1.0  0.9264403386283168  0.8283343874187709  0.2143717021703454  1.0000
  C   C24       1.0  0.969815715937301  0.9191035436370761  0.14278611920045547  1.0000
  C   C25       1.0  0.965405793233528  0.9299020178270632  0.006763601148098042  1.0000
  S   S1        1.0  0.9323240851576386  0.814455989162275  0.388899552704295  1.0000
  C   C26       1.0  0.8564896766205812  0.934188490304552  0.4065385701170817  1.0000
  H   H9        1.0  0.9043671032419462  0.32761776769215545  0.5381054254806237  1.0000
  H   H10       1.0  0.9113553977233275  0.07076078562976829  0.779757192166509  1.0000
  H   H11       1.0  0.9131788003211198  0.6535400260822823  0.7796216680691455  1.0000
  H   H12       1.0  0.9002629758064721  0.8906566431251546  0.41722685553927663  1.0000
  H   H13       1.0  0.9041582189941716  0.43468187032614874  0.5381193288563286  1.0000
  H   H14       1.0  0.836406122298016  0.6960179438932312  0.9654454071627623  1.0000
  H   H15       1.0  0.8451689841514348  0.6772908022541069  0.20439622617229292  1.0000
  H   H16       1.0  0.006998386002352586  0.9813407217646014  0.19241271125596493  1.0000
  H   H17       1.0  0.00010183510019401432  0.9999026750232107  0.9533220763072399  1.0000
  H   H18       1.0  0.8716001494899687  0.02977365241276475  0.358039774203991  1.0000
  H   H19       1.0  0.8477381250095039  0.9453215798944984  0.5115944383091717  1.0000
  H   H20       1.0  0.8033898852171506  0.9012099300993943  0.36309618974823854  1.0000
  C   C27       1.0  0.9060162214033128  0.3769408781767585  0.20881757081874208  1.0000
  C   C28       1.0  0.8320767055122823  0.33139220083568244  0.209781795897515  1.0000
  C   C29       1.0  0.7945901965002939  0.3084159174579393  0.09312299313410222  1.0000
  C   C30       1.0  0.8320253580296618  0.33162114643325036  0.9744756297108852  1.0000
  C   C31       1.0  0.9059652963711277  0.3771703107797766  0.9715191533280652  1.0000
  C   C32       1.0  0.9425474620988519  0.3995722031082629  0.08919951414899763  1.0000
  C   C33       1.0  0.7163685390326441  0.2602207975594837  0.09519783924042313  1.0000
  C   C34       1.0  0.6623349306934107  0.31149867101031736  0.0027047110147448983  1.0000
  C   C35       1.0  0.5888187372824825  0.26612217724658405  0.004924101254218938  1.0000
  C   C36       1.0  0.5682674600311641  0.1691826725378449  0.09909711394728538  1.0000
  C   C37       1.0  0.6215568270774918  0.11653618750611283  0.192434262331598  1.0000
  C   C38       1.0  0.6951754843330867  0.1625472676324624  0.1897660603546134  1.0000
  O   O2        1.0  0.6038122143255197  0.01882208007374997  0.2888121201639393  1.0000
  C   C39       1.0  0.5314864367777133  0.9630446530207363  0.303046905954107  1.0000
  H   H21       1.0  0.9342003965633081  0.3942380818168405  0.5359079672309408  1.0000
  H   H22       1.0  0.8030875523151749  0.3153645883687126  0.3013365045485894  1.0000
  H   H23       1.0  0.8037401971203493  0.3123939351076541  0.8844392599123938  1.0000
  H   H24       1.0  0.9995890083983117  0.4347102373558325  0.08768727157617806  1.0000
  H   H25       1.0  0.9341243778273426  0.3945885205714863  0.6429348576153764  1.0000
  H   H26       1.0  0.6766724623304426  0.3878709261955897  0.9297445432927005  1.0000
  H   H27       1.0  0.5475512281684319  0.30651150917758696  0.9335591676596247  1.0000
  H   H28       1.0  0.5109428067358451  0.1359193308524691  0.09849719492635489  1.0000
  H   H29       1.0  0.7361106640015103  0.12042399834721795  0.2609489178321496  1.0000
  H   H30       1.0  0.5159411833805948  0.9153407803409787  0.21379829814146034  1.0000
  H   H31       1.0  0.533439485542479  0.8884753421059886  0.3867660308851968  1.0000
  H   H32       1.0  0.48849094159813616  0.03938000749689352  0.322254550898156  1.0000
  Zn  Zn1       1.0  0.8232999156005635  0.38105344894692394  0.5881108053066288  1.0000
  Zn  Zn2       1.0  0.9886743512554202  0.3730574451001467  0.5922251594703483  1.0000
  C   C40       1.0  0.9059741823587163  0.3719533348086732  0.8273521211450143  1.0000
  C   C41       1.0  0.9060018900667113  0.38215911057874274  0.3529840160443396  1.0000
  C   C42       1.0  0.905942951755483  0.6142461286973546  0.5849967297380991  1.0000
  C   C43       1.0  0.9060330645257075  0.13986475913817764  0.5953394752604104  1.0000
  O   O3        1.0  0.9687558178712569  0.38087028951730617  0.4029289679210135  1.0000
  O   O4        1.0  0.9687356249200109  0.3671723941312699  0.7805294950366839  1.0000
  O   O5        1.0  0.9687095597049443  0.5628269307188656  0.5848257807418484  1.0000
  O   O6        1.0  0.9687818266600022  0.1852157649191306  0.5986325834419883  1.0000
  O   O7        1.0  0.8431923837618033  0.5688951318579958  0.5817033799241313  1.0000
  O   O8        1.0  0.8432184486869283  0.37324215555233864  0.7774070249989529  1.0000
  O   O9        1.0  0.8432386418011104  0.38694000521039107  0.3998049365573655  1.0000
  O   O10       1.0  0.8432646505819987  0.19128547135285068  0.5955086494413433  1.0000
