data_image0
_chemical_formula_structural       NC9NC3OCH8C12NCOCH13C13OH12Zn2C4O8
_chemical_formula_sum              "N3 C44 O11 H33 Zn2"
_cell_length_a       17.728193572023454
_cell_length_b       10.299155265289647
_cell_length_c       10.299153481560891
_cell_angle_alpha    85.56585442832863
_cell_angle_beta     90.72181207759093
_cell_angle_gamma    88.43175330785003

_space_group_name_H-M_alt    "P 1"
_space_group_IT_number       1

loop_
  _space_group_symop_operation_xyz
  'x, y, z'

loop_
  _atom_site_type_symbol
  _atom_site_label
  _atom_site_symmetry_multiplicity
  _atom_site_fract_x
  _atom_site_fract_y
  _atom_site_fract_z
  _atom_site_occupancy
  N   N1        1.0  0.7100539247880063  0.38652142598977623  0.5847671871488258  1.0000
  C   C1        1.0  0.649449204736821  0.34909506457237516  0.5977831964346674  1.0000
  C   C2        1.0  0.5740046530379996  0.30256910960467076  0.6139827720794984  1.0000
  C   C3        1.0  0.5621263989145958  0.17452396901149658  0.6234392558667403  1.0000
  C   C4        1.0  0.485425609553047  0.12507383305084607  0.6384041186384355  1.0000
  C   C5        1.0  0.4272684647471334  0.20775675760382017  0.6558511585770124  1.0000
  C   C6        1.0  0.349229914146851  0.16271297051640432  0.6775984870502987  1.0000
  C   C7        1.0  0.287870184147099  0.2481758549830655  0.6421121303672357  1.0000
  C   C8        1.0  0.21360447290776133  0.20887717525624017  0.6622716132713811  1.0000
  C   C9        1.0  0.1512652685047988  0.2968763294934502  0.624710153070265  1.0000
  N   N2        1.0  0.1011579594660328  0.3676191232870589  0.5945142897369879  1.0000
  C   C10       1.0  0.2000672261078692  0.08399612831500636  0.7189715941364325  1.0000
  C   C11       1.0  0.2605284835206194  0.9988513278359467  0.7558664526806724  1.0000
  C   C12       1.0  0.3346906537471848  0.03766038738782984  0.7358366937290233  1.0000
  O   O1        1.0  0.4406053609657375  0.3415529551282894  0.6545182519833685  1.0000
  C   C13       1.0  0.5083132115708415  0.3989205719248228  0.6058917419804761  1.0000
  H   H1        1.0  0.6090631469090482  0.10505675672565373  0.6213574601437937  1.0000
  H   H2        1.0  0.4777877936787924  0.021415346242658728  0.6364504925174013  1.0000
  H   H3        1.0  0.29773960825026413  0.34499329006840695  0.597657623436266  1.0000
  H   H4        1.0  0.142859945515839  0.05271104786504344  0.7351208008050856  1.0000
  H   H5        1.0  0.24992234456030732  0.9026929788179044  0.8007819205775399  1.0000
  H   H6        1.0  0.3802369537403776  0.9704359300037346  0.7682762987705511  1.0000
  H   H7        1.0  0.498820770419129  0.4348159289042557  0.5023534814017503  1.0000
  H   H8        1.0  0.5211927705281527  0.48333372954813325  0.6624515633436368  1.0000
  C   C14       1.0  0.9056938768342869  0.9956685894265384  0.5897616382863435  1.0000
  C   C15       1.0  0.8927797673124209  0.005953366932555104  0.45451401015211323  1.0000
  C   C16       1.0  0.8861589333133553  0.8940337815280109  0.3858210671678357  1.0000
  C   C17       1.0  0.89259927242834  0.7707022307698387  0.4542017256798352  1.0000
  C   C18       1.0  0.905525288640832  0.7584616678559878  0.5895312414790463  1.0000
  C   C19       1.0  0.9119963708879267  0.8714655251885818  0.6564781364040373  1.0000
  C   C20       1.0  0.8724982963933149  0.9058874585542727  0.24274543088269507  1.0000
  C   C21       1.0  0.9107566430791162  0.9981255040281887  0.16228095011632937  1.0000
  C   C22       1.0  0.8979072932618377  0.009149417658244063  0.02763739753613903  1.0000
  C   C23       1.0  0.8470118885772159  0.9272505907764467  0.970618173613262  1.0000
  C   C24       1.0  0.8078317166903972  0.8368733632914768  0.05099152087230685  1.0000
  C   C25       1.0  0.8207085460910024  0.8255920912151432  0.18559842266900684  1.0000
  N   N3        1.0  0.8317334179053694  0.9381897646102036  0.8326757399633151  1.0000
  C   C26       1.0  0.8868197482656215  0.9724351896703115  0.7358304414837531  1.0000
  O   O2        1.0  0.9560561462185697  0.9716314174788954  0.7654144918167081  1.0000
  C   C27       1.0  0.8627210624812707  6.10604213524546e-06  0.5966893531883692  1.0000
  H   H9        1.0  0.910684619352663  0.3191876772152964  0.6417785506567815  1.0000
  H   H10       1.0  0.8868002459139038  0.10127229541680238  0.40255512203341803  1.0000
  H   H11       1.0  0.8885307864622753  0.6840843796357694  0.40147164974486027  1.0000
  H   H12       1.0  0.9219598338713085  0.8628176733568232  0.7607970761906773  1.0000
  H   H13       1.0  0.9303743333193752  0.5280530513302062  0.8448390660391971  1.0000
  H   H14       1.0  0.9510610530957008  0.06123766622416649  0.20337791407727446  1.0000
  H   H15       1.0  0.9268483201975831  0.08318887922626605  0.9687779697242962  1.0000
  H   H16       1.0  0.7674547362739051  0.7744685050246775  0.009025708554329048  1.0000
  H   H17       1.0  0.7893427295697166  0.7552864130931072  0.2452303709058996  1.0000
  H   H18       1.0  0.7785750680230267  0.9118812672845219  0.8002773459109198  1.0000
  H   H19       1.0  0.8082449853299556  0.05608333274717148  0.5908780394288504  1.0000
  H   H20       1.0  0.855730121470658  0.9067211139245159  0.5512908569476149  1.0000
  H   H21       1.0  0.9056728481335661  0.05800528029413088  0.5423642655239167  1.0000
  C   C28       1.0  0.9055447896336811  0.3769208000370923  0.2082723262169679  1.0000
  C   C29       1.0  0.8275273740979242  0.35630943096946077  0.2070066858761972  1.0000
  C   C30       1.0  0.7881077505045817  0.34601519820365034  0.08920078423754885  1.0000
  C   C31       1.0  0.827705353113946  0.3566181512218871  0.9717030597765213  1.0000
  C   C32       1.0  0.905674366473377  0.3772094237537833  0.971020553114244  1.0000
  C   C33       1.0  0.9441388202411616  0.38723690793699217  0.08982735395009112  1.0000
  C   C34       1.0  0.7056240989909532  0.3242369905099354  0.08883575906526642  1.0000
  C   C35       1.0  0.6578808637161846  0.39178596880479843  0.9949589274290687  1.0000
  C   C36       1.0  0.5802588687480514  0.37133533634050564  0.9946933587718005  1.0000
  C   C37       1.0  0.5490738145564995  0.2821236768381894  0.08740307097568145  1.0000
  C   C38       1.0  0.5963105424623562  0.21569553808751696  0.18218548462218065  1.0000
  C   C39       1.0  0.6739361240404351  0.23611634765942835  0.18262930111677367  1.0000
  C   C40       1.0  0.4654490891274262  0.26287693286866953  0.08924228259083167  1.0000
  O   O3        1.0  0.4315340108836952  0.3521105064276495  0.16787825321252425  1.0000
  H   H22       1.0  0.05271036914900984  0.41666012373574035  0.41788701151861485  1.0000
  H   H23       1.0  0.797104011584994  0.3500155386942019  0.29772635739074005  1.0000
  H   H24       1.0  0.7977660408778658  0.34701206134525187  0.8807810704615981  1.0000
  H   H25       1.0  0.004278244164318101  0.4031232382413261  0.09001672558372231  1.0000
  H   H26       1.0  0.9356539884015832  0.38521595708347545  0.6432757103248008  1.0000
  H   H27       1.0  0.6804237788358699  0.46195785402603695  0.9229419450240854  1.0000
  H   H28       1.0  0.5444418096001314  0.42535051210163055  0.9223043877727801  1.0000
  H   H29       1.0  0.5730712657262371  0.14776386548903386  0.2556243384587631  1.0000
  H   H30       1.0  0.7092996790380115  0.1819225751642659  0.25553024280449854  1.0000
  H   H31       1.0  0.4534941588899804  0.1616598937049758  0.12779341389893006  1.0000
  H   H32       1.0  0.4415593105009528  0.277397793672425  0.9885120765040711  1.0000
  H   H33       1.0  0.3766789164401586  0.33540667554850323  0.16581351047057846  1.0000
  Zn  Zn1       1.0  0.8229181143880737  0.3810631619290039  0.5875874912724426  1.0000
  Zn  Zn2       1.0  0.9882937996127299  0.37306678674656024  0.5917046266295463  1.0000
  C   C41       1.0  0.9056493194324261  0.3719808286475259  0.8268463388776812  1.0000
  C   C42       1.0  0.9055644001251247  0.38215067151575743  0.3524459509565445  1.0000
  C   C43       1.0  0.9055523710131274  0.6142757415720974  0.5843994644765562  1.0000
  C   C44       1.0  0.9056612924699534  0.13985420091003453  0.5948928936636433  1.0000
  O   O4        1.0  0.9683301935178354  0.3808656152254557  0.4023943695841976  1.0000
  O   O5        1.0  0.9683998447454312  0.36719584125016436  0.7800223571668281  1.0000
  O   O6        1.0  0.9683207118759674  0.5628520890927697  0.5842447692655575  1.0000
  O   O7        1.0  0.9684092699371863  0.18520937936564108  0.5981718587017659  1.0000
  O   O8        1.0  0.8428025876290105  0.5689205720401045  0.5811202577884151  1.0000
  O   O9        1.0  0.8428817201383378  0.3732658846088326  0.7768977759719049  1.0000
  O   O10       1.0  0.8428120687057155  0.3869356127310202  0.399268226982191  1.0000
  O   O11       1.0  0.8428911451405728  0.19127936761859687  0.5950458134716541  1.0000
