data_image0
_chemical_formula_structural       NC9NC3OCH8C12NH11C16H10Zn2C4O8
_chemical_formula_sum              "N3 C45 O9 H29 Zn2"
_cell_length_a       17.728193572023454
_cell_length_b       10.299770795358612
_cell_length_c       10.299151387937775
_cell_angle_alpha    85.58089315832936
_cell_angle_beta     90.6938546660218
_cell_angle_gamma    88.47103896228896

_space_group_name_H-M_alt    "P 1"
_space_group_IT_number       1

loop_
  _space_group_symop_operation_xyz
  'x, y, z'

loop_
  _atom_site_type_symbol
  _atom_site_label
  _atom_site_symmetry_multiplicity
  _atom_site_fract_x
  _atom_site_fract_y
  _atom_site_fract_z
  _atom_site_occupancy
  N   N1        1.0  0.7110116954622238  0.3862909258976095  0.5850844933101278  1.0000
  C   C1        1.0  0.6503882903497629  0.34886903224790267  0.5980922200747316  1.0000
  C   C2        1.0  0.5749205052387005  0.30234863263009504  0.6142814992293908  1.0000
  C   C3        1.0  0.5629883073744602  0.17431633452159945  0.6237100398520559  1.0000
  C   C4        1.0  0.486263465558884  0.12487194615915564  0.6386639842656237  1.0000
  C   C5        1.0  0.4281344504252165  0.20754821835694703  0.6561288038026034  1.0000
  C   C6        1.0  0.3500716807239633  0.16251023197897108  0.6778660957769094  1.0000
  C   C7        1.0  0.2887562585609392  0.24796251284414228  0.6423987168471232  1.0000
  C   C8        1.0  0.2144690797195123  0.2086689765727341  0.6625494300537693  1.0000
  C   C9        1.0  0.1521757889375325  0.2966571413476433  0.6250075222702416  1.0000
  N   N2        1.0  0.1021053900267099  0.3673911006721522  0.5948273771872716  1.0000
  C   C10       1.0  0.20086570963533554  0.08380376147675883  0.7192216256674058  1.0000
  C   C11       1.0  0.26128238565468803  0.9986696324324732  0.7560975598098771  1.0000
  C   C12       1.0  0.33546579058336773  0.0374736041527417  0.736076462656827  1.0000
  O   O1        1.0  0.44152528028543875  0.34133159196145213  0.6548249995287991  1.0000
  C   C13       1.0  0.5092699329367781  0.3986903633099934  0.6062115067544454  1.0000
  H   H1        1.0  0.6098978423976301  0.10485558724303878  0.6216131652714669  1.0000
  H   H2        1.0  0.47858471457580276  0.021223186681164075  0.6366878446470932  1.0000
  H   H3        1.0  0.2986770877952912  0.34476763929337984  0.597965756756911  1.0000
  H   H4        1.0  0.1436413103947467  0.05252278265642185  0.7353638497855033  1.0000
  H   H5        1.0  0.2506249741793348  0.9025235614418231  0.8009916189807513  1.0000
  H   H6        1.0  0.38097595013066987  0.9702578027310966  0.7685010891667565  1.0000
  H   H7        1.0  0.4998213276799046  0.4345750934730208  0.5026822113056277  1.0000
  H   H8        1.0  0.5221671821875682  0.48309942808340667  0.662789045114871  1.0000
  C   C14       1.0  0.9064937803090346  0.9954756279384683  0.5899939167975412  1.0000
  C   C15       1.0  0.8846058607785481  0.005652049048480157  0.45803764332719643  1.0000
  C   C16       1.0  0.8735843010540718  0.8936690038640664  0.39114098833552835  1.0000
  C   C17       1.0  0.8847439939424133  0.7703637307448982  0.45797253132709637  1.0000
  C   C18       1.0  0.9066305477667019  0.7581960840571613  0.5899293213249721  1.0000
  C   C19       1.0  0.9173832429186379  0.8713123858096469  0.6552009576734845  1.0000
  C   C20       1.0  0.8504284829632343  0.9054884559557759  0.2515389181177632  1.0000
  C   C21       1.0  0.7954843722401285  0.9993020954993247  0.20498278902573253  1.0000
  C   C22       1.0  0.7737224739883328  0.010295774346243292  0.07358906574838109  1.0000
  C   C23       1.0  0.8064928212925156  0.9279142654499223  0.9866610628778703  1.0000
  C   C24       1.0  0.8612559471150422  0.8343070702014426  0.032322120411773625  1.0000
  C   C25       1.0  0.8830783010809953  0.8230544311195853  0.16368737660331467  1.0000
  N   N3        1.0  0.7842010655529124  0.9392923195924379  0.8522696207440781  1.0000
  H   H9        1.0  0.9148019948946483  0.31905175710540457  0.6402917074621  1.0000
  H   H10       1.0  0.8770782413611952  0.10089901843561688  0.40649763970497177  1.0000
  H   H11       1.0  0.8753219817874355  0.6837684055727609  0.40732544229045775  1.0000
  H   H12       1.0  0.9342682077472109  0.8626937294987466  0.7569993639018251  1.0000
  H   H13       1.0  0.9150031504332029  0.426105613883498  0.6401970944555715  1.0000
  H   H14       1.0  0.7686323264974736  0.06303933479314794  0.27051738569197337  1.0000
  H   H15       1.0  0.7311802549815077  0.08281864274344763  0.03961753783335009  1.0000
  H   H16       1.0  0.8871747988345869  0.7702690764098584  0.9660749998594671  1.0000
  H   H17       1.0  0.9261992038076666  0.7510132492639333  0.19623377146241383  1.0000
  H   H18       1.0  0.808308542014466  0.8783035210844431  0.7867302637396589  1.0000
  H   H19       1.0  0.7434252879926824  0.008789363939096573  0.8173189256865694  1.0000
  C   C26       1.0  0.9066058721362162  0.3766649912146405  0.20859176859671535  1.0000
  C   C27       1.0  0.8338037550221388  0.4341361203178553  0.20186485591878967  1.0000
  C   C28       1.0  0.7968465988268073  0.4634512847439871  0.08129708104002042  1.0000
  C   C29       1.0  0.8336725453406354  0.434520054474155  0.9665492193770864  1.0000
  C   C30       1.0  0.9065184507988107  0.37700666501255586  0.9713315373243403  1.0000
  C   C31       1.0  0.9425373982449498  0.3484351081292629  0.09276822325462208  1.0000
  C   C32       1.0  0.71983077598329  0.5242490900559797  0.07522622966386883  1.0000
  C   C33       1.0  0.7006808492547085  0.6249866231834853  0.9794354965552063  1.0000
  C   C34       1.0  0.6281811123693181  0.6821709067580701  0.9738495765843895  1.0000
  C   C35       1.0  0.5738802519659805  0.6394720671499039  0.06372888357004669  1.0000
  C   C36       1.0  0.5923463312402991  0.5393259189392794  0.15934043815297372  1.0000
  C   C37       1.0  0.6648244022383705  0.4820550897384839  0.16517539114100077  1.0000
  C   C38       1.0  0.4992521794999377  0.6983889247505153  0.057850431897933374  1.0000
  C   C39       1.0  0.4367522218498842  0.74773090601217  0.052927226460038446  1.0000
  C   C40       1.0  0.3635654213604694  0.8055099198230611  0.04716220262546411  1.0000
  C   C41       1.0  0.3010755638689265  0.8548441650513385  0.04223989928390082  1.0000
  H   H20       1.0  0.9345926267689122  0.35449734449856574  0.538659276925225  1.0000
  H   H21       1.0  0.8060798901691463  0.4578702188603436  0.2904760614305162  1.0000
  H   H22       1.0  0.8050412893308001  0.4552826377613879  0.8734613399880842  1.0000
  H   H23       1.0  0.9986906283436563  0.3041026395917039  0.0972413671771315  1.0000
  H   H24       1.0  0.04382154734143762  0.26770399076199225  0.7731191316733477  1.0000
  H   H25       1.0  0.7420583294704661  0.6606889546091363  0.9099165178503799  1.0000
  H   H26       1.0  0.6145474862865539  0.7598787958460267  0.8996506389163033  1.0000
  H   H27       1.0  0.550676428621742  0.505278912250398  0.22918339414323263  1.0000
  H   H28       1.0  0.6775660832489641  0.40362866942731723  0.23895915935469692  1.0000
  H   H29       1.0  0.24620430956085504  0.8981636432128863  0.03791771792828724  1.0000
  Zn  Zn1       1.0  0.8238728976059987  0.3808333776356536  0.5879035791668272  1.0000
  Zn  Zn2       1.0  0.9892442103580701  0.37283805008264426  0.5920189299228034  1.0000
  C   C42       1.0  0.9065323715430622  0.37176857255475704  0.8271577683379414  1.0000
  C   C43       1.0  0.9065865425498303  0.3819044065156061  0.35276491301929136  1.0000
  C   C44       1.0  0.9066014090162745  0.6140235444037927  0.5847662886776666  1.0000
  C   C45       1.0  0.9065174483592182  0.13964787713839422  0.595156460646133  1.0000
  O   O2        1.0  0.9693376056976473  0.3806229513284394  0.4027124919694842  1.0000
  O   O3        1.0  0.9692943082095182  0.3669807792479882  0.7803332716247353  1.0000
  O   O4        1.0  0.9693492106856693  0.5626047742556195  0.5846004156713549  1.0000
  O   O5        1.0  0.9692826468042943  0.1849989682955786  0.5984452491428749  1.0000
  O   O6        1.0  0.8438344047266625  0.5686724621525425  0.5814772585355572  1.0000
  O   O7        1.0  0.8437795025347994  0.3730500274029114  0.7772100451111723  1.0000
  O   O8        1.0  0.8438228002439423  0.3866921535258727  0.39958770405638533  1.0000
  O   O9        1.0  0.8437678413346793  0.1910681612480658  0.595320558598567  1.0000
