data_image0
_chemical_formula_structural       NC9NC3OCH8C12ClH9C12NH11Zn2C4O8
_chemical_formula_sum              "N3 C41 O9 H28 Cl1 Zn2"
_cell_length_a       17.728193572023454
_cell_length_b       10.299768534541528
_cell_length_c       10.299774167527174
_cell_angle_alpha    85.57901690489705
_cell_angle_beta     90.69829352168313
_cell_angle_gamma    88.47167022583639

_space_group_name_H-M_alt    "P 1"
_space_group_IT_number       1

loop_
  _space_group_symop_operation_xyz
  'x, y, z'

loop_
  _atom_site_type_symbol
  _atom_site_label
  _atom_site_symmetry_multiplicity
  _atom_site_fract_x
  _atom_site_fract_y
  _atom_site_fract_z
  _atom_site_occupancy
  N   N1        1.0  0.7109548639567093  0.38648347254759585  0.5853047827517424  1.0000
  C   C1        1.0  0.6503318009051244  0.3490600201802143  0.5983077807262442  1.0000
  C   C2        1.0  0.5748644419177938  0.3025376801320103  0.6144911804489654  1.0000
  C   C3        1.0  0.562931754293875  0.17450511670893842  0.6239052382084858  1.0000
  C   C4        1.0  0.48620725875886217  0.12505899144504262  0.6388530425700352  1.0000
  C   C5        1.0  0.42807967463193514  0.20773203205228175  0.6563260755734599  1.0000
  C   C6        1.0  0.35001760447245867  0.16269129098039237  0.6780573822856657  1.0000
  C   C7        1.0  0.2887011283947948  0.24814796398501615  0.6426010801758615  1.0000
  C   C8        1.0  0.2144146160000585  0.20885185302994813  0.662746514182166  1.0000
  C   C9        1.0  0.1521201916575312  0.2968446879412967  0.6252160613471731  1.0000
  N   N2        1.0  0.1020488814696631  0.36758240161582334  0.5950451249372439  1.0000
  C   C10       1.0  0.20081301529375484  0.08397951983952368  0.7194022897295949  1.0000
  C   C11       1.0  0.2612308142188333  0.9988407924254957  0.7562671138060306  1.0000
  C   C12       1.0  0.3354135552563495  0.0376473242970885  0.7362512359506492  1.0000
  O   O1        1.0  0.44147142082978463  0.34151444785808005  0.6550369914180789  1.0000
  C   C13       1.0  0.5092141919949229  0.3988797513510265  0.6064321331876008  1.0000
  H   H1        1.0  0.6098406822704766  0.10504526747623188  0.6218008550073488  1.0000
  H   H2        1.0  0.4785276565064343  0.021411405470117995  0.6368656429125821  1.0000
  H   H3        1.0  0.2986205623814004  0.3449586806348719  0.5981808741811032  1.0000
  H   H4        1.0  0.1435891513601015  0.05269647682571832  0.7355403062960599  1.0000
  H   H5        1.0  0.2505748246326108  0.9026890589694139  0.801148468792777  1.0000
  H   H6        1.0  0.380924758029307  0.9704274141070101  0.7686669307125584  1.0000
  H   H7        1.0  0.49976094916499314  0.4347791317333807  0.5029117747469036  1.0000
  H   H8        1.0  0.522114736077185  0.48327991877962084  0.6630161837955766  1.0000
  C   C14       1.0  0.9064343240417886  0.9956708135389398  0.590171151808496  1.0000
  C   C15       1.0  0.9114137702094178  0.004956080736739699  0.453832581559501  1.0000
  C   C16       1.0  0.9140094433706605  0.8925181282528785  0.38475793907208855  1.0000
  C   C17       1.0  0.9115578991468285  0.7696614022387784  0.45385166037989855  1.0000
  C   C18       1.0  0.90657667770094  0.7583846917822262  0.5901901243681109  1.0000
  C   C19       1.0  0.9040433410102209  0.8719449138934379  0.6575863876065695  1.0000
  C   C20       1.0  0.9192782856895614  0.9033947862069311  0.2405231224769233  1.0000
  C   C21       1.0  0.8763517465891847  0.9989877413340744  0.16499367791862096  1.0000
  C   C22       1.0  0.8813781684068697  0.009026119698865243  0.029245428537170826  1.0000
  C   C23       1.0  0.9292583683865251  0.923996700979702  0.9673330323657057  1.0000
  C   C24       1.0  0.9721726429793618  0.8287161424862446  0.04135102117352174  1.0000
  C   C25       1.0  0.9672802331120594  0.8182790405279943  0.17711725075504337  1.0000
  Cl  Cl1       1.0  0.9354806776119827  0.9368414447511314  0.7970109253145812  1.0000
  H   H9        1.0  0.9044981897796666  0.3195882903044682  0.6421186412078579  1.0000
  H   H10       1.0  0.9143267881876942  0.0998122952427487  0.4011749920540135  1.0000
  H   H11       1.0  0.912501551127921  0.6827665758664377  0.40093147773054416  1.0000
  H   H12       1.0  0.900201163242446  0.8640136058970188  0.7627652994697489  1.0000
  H   H13       1.0  0.9047086455980214  0.42663254068833273  0.6421471104963483  1.0000
  H   H14       1.0  0.8381930098674225  0.06482144881539043  0.21078461517387925  1.0000
  H   H15       1.0  0.8478763746202396  0.08274277913929073  0.9723019018955537  1.0000
  H   H16       1.0  0.009489894807062749  0.7628759952875014  0.9938497269605229  1.0000
  H   H17       1.0  0.001739730396711936  0.7448089700099172  0.23259039363447576  1.0000
  C   C26       1.0  0.9065311513211993  0.3769120150705614  0.2088292064827988  1.0000
  C   C27       1.0  0.832614104658521  0.33118288621744907  0.2098080390207251  1.0000
  C   C28       1.0  0.7951333513752037  0.3081286672207939  0.09315554675625592  1.0000
  C   C29       1.0  0.8325623033117492  0.33141668875366204  0.9745020425429072  1.0000
  C   C30       1.0  0.9064798295885481  0.3771435679497108  0.9715320775429439  1.0000
  C   C31       1.0  0.943050214345714  0.3996356736310833  0.08920453771008896  1.0000
  C   C32       1.0  0.716933400109582  0.25975046596512175  0.09524444351367367  1.0000
  C   C33       1.0  0.6957065148519067  0.16232332086449874  0.19001252275370595  1.0000
  C   C34       1.0  0.6221012261017339  0.11684545031952887  0.191844802034852  1.0000
  C   C35       1.0  0.5685584670396249  0.16795835874059684  0.09920768309522532  1.0000
  C   C36       1.0  0.5892872988603921  0.2650194168040483  0.004586556420575594  1.0000
  C   C37       1.0  0.6628699464708502  0.3105996425381832  0.0024874352047792314  1.0000
  N   N3        1.0  0.4932773278113299  0.12138543851992556  0.10121840100892099  1.0000
  H   H18       1.0  0.9347097544419206  0.3942826214138344  0.535914145425052  1.0000
  H   H19       1.0  0.803638315028845  0.3150802587529209  0.30137171472378044  1.0000
  H   H20       1.0  0.8042965841087976  0.31210736532488226  0.8844672396267081  1.0000
  H   H21       1.0  7.397631801508986e-05  0.43491269644684105  0.08768143041046961  1.0000
  H   H22       1.0  0.9346344409772714  0.394623208242471  0.6429424989694104  1.0000
  H   H23       1.0  0.7362926801366201  0.12009401035688638  0.2616723389678839  1.0000
  H   H24       1.0  0.6068639580096346  0.0415358615932413  0.2652821177968574  1.0000
  H   H25       1.0  0.5483857893286462  0.3055986716772381  0.9326487995426684  1.0000
  H   H26       1.0  0.6772251769849067  0.3868183462320187  0.9293601873816035  1.0000
  H   H27       1.0  0.4529704200080899  0.1588895314041261  0.03255072279029814  1.0000
  H   H28       1.0  0.4772934077276135  0.049057179645054294  0.17139004591507434  1.0000
  Zn  Zn1       1.0  0.8238161596260573  0.38102556374782304  0.5881231343886841  1.0000
  Zn  Zn2       1.0  0.9891876087014772  0.3730297101178983  0.5922374102169756  1.0000
  C   C38       1.0  0.9064868908998621  0.3719262694751164  0.8273647627349527  1.0000
  C   C39       1.0  0.9065186835759905  0.38213055570449095  0.3529959542999439  1.0000
  C   C40       1.0  0.9065462273268186  0.6142141859619152  0.5850115435057821  1.0000
  C   C41       1.0  0.9064592904234644  0.13984108169304044  0.5953492413217552  1.0000
  O   O2        1.0  0.9692721013129932  0.3808418951933976  0.4029409779407198  1.0000
  O   O3        1.0  0.9692465764185461  0.36714528227446364  0.7805420053966399  1.0000
  O   O4        1.0  0.9692936452403782  0.562795880301316  0.5848400451655213  1.0000
  O   O5        1.0  0.9692249760693716  0.18519130915548399  0.598642839397937  1.0000
  O   O6        1.0  0.8437787358250036  0.5688639674402416  0.5817177037968917  1.0000
  O   O7        1.0  0.8437316672955826  0.37321492966804515  0.777419594824539  1.0000
  O   O8        1.0  0.8437571923368086  0.38691149685546966  0.3998170060395394  1.0000
  O   O9        1.0  0.8437100670818175  0.1912609015586213  0.5955189648598278  1.0000
