data_image0
_chemical_formula_structural       NC9NC3OCH8C12OCH12C12OCH12Zn2C4O8
_chemical_formula_sum              "N2 C43 O11 H32 Zn2"
_cell_length_a       17.728193572023454
_cell_length_b       10.29979075500242
_cell_length_c       10.299794127170987
_cell_angle_alpha    85.57270427699777
_cell_angle_beta     90.69834653510783
_cell_angle_gamma    88.43583692371088

_space_group_name_H-M_alt    "P 1"
_space_group_IT_number       1

loop_
  _space_group_symop_operation_xyz
  'x, y, z'

loop_
  _atom_site_type_symbol
  _atom_site_label
  _atom_site_symmetry_multiplicity
  _atom_site_fract_x
  _atom_site_fract_y
  _atom_site_fract_z
  _atom_site_occupancy
  N   N1        1.0  0.7104487248234436  0.3865203539186719  0.585145301001311  1.0000
  C   C1        1.0  0.649839308612462  0.3490959757301628  0.5981526467621132  1.0000
  C   C2        1.0  0.5743889144782434  0.3025724847104818  0.6143414513303631  1.0000
  C   C3        1.0  0.5625028947776879  0.17453685090945648  0.6237704437176805  1.0000
  C   C4        1.0  0.48579642897105557  0.12508950857123335  0.6387239964593432  1.0000
  C   C5        1.0  0.4276387242165229  0.20776446662180748  0.6561873455692722  1.0000
  C   C6        1.0  0.3495930821646057  0.16272259445900672  0.6779238746177996  1.0000
  C   C7        1.0  0.2882454400860739  0.24818139752771562  0.6424576541807008  1.0000
  C   C8        1.0  0.21397326120049784  0.20888429646384332  0.6626076424208254  1.0000
  C   C9        1.0  0.1516467453245206  0.2968793274818997  0.6250669786544392  1.0000
  N   N2        1.0  0.1015496366530442  0.36761880661368473  0.5948878336451546  1.0000
  C   C10       1.0  0.2004172041893397  0.08400883734185038  0.7192779026848888  1.0000
  C   C11       1.0  0.2608660540587711  0.998867983527029  0.7561526055496575  1.0000
  C   C12       1.0  0.3350346400934532  0.03767549350788468  0.7361322304082598  1.0000
  O   O1        1.0  0.44098171165066585  0.34155006704622015  0.6548826414480229  1.0000
  C   C13       1.0  0.5087035472612784  0.3989168690283693  0.6062711677148869  1.0000
  H   H1        1.0  0.609437136694279  0.10507535589585015  0.6216741751537911  1.0000
  H   H2        1.0  0.4781546007057652  0.02143946358240556  0.6367487034431396  1.0000
  H   H3        1.0  0.2981295647789357  0.3449945390150597  0.5980262193599335  1.0000
  H   H4        1.0  0.14320475100540161  0.05272500583916706  0.7354195446362815  1.0000
  H   H5        1.0  0.2502451338637351  0.9027138396268369  0.8010451116214501  1.0000
  H   H6        1.0  0.3805703605686389  0.9704538952959411  0.7685557191418815  1.0000
  H   H7        1.0  0.49923716027935444  0.43481738941429793  0.5027467944313435  1.0000
  H   H8        1.0  0.5215733640529454  0.4833188867646838  0.6628452657863904  1.0000
  C   C14       1.0  0.9060706223717845  0.9956983887794553  0.590057298089701  1.0000
  C   C15       1.0  0.8842169313680253  0.9856254076449742  0.7209451316434368  1.0000
  C   C16       1.0  0.8730836158896448  0.8633879510332381  0.7872323507675716  1.0000
  C   C17       1.0  0.8840813569429643  0.7503496481216848  0.7208759722503111  1.0000
  C   C18       1.0  0.9059350145091519  0.7584304158416485  0.5899872053903601  1.0000
  C   C19       1.0  0.9168090356646089  0.8815519684014057  0.5253114718256267  1.0000
  C   C20       1.0  0.8499682462842001  0.8537851892341156  0.9257057004400118  1.0000
  C   C21       1.0  0.7949021826408814  0.7655929170766805  0.9693975259220236  1.0000
  C   C22       1.0  0.7732145773601231  0.756825402959521  0.09959050577918793  1.0000
  C   C23       1.0  0.8061047232167752  0.8356056859567607  0.1877541007269592  1.0000
  C   C24       1.0  0.8613715662398919  0.9243978653769743  0.14593889922485448  1.0000
  C   C25       1.0  0.8828252566786884  0.9328153488164399  0.015213416167405347  1.0000
  O   O2        1.0  0.8962487317590555  0.005435762027632407  0.23067240530217537  1.0000
  C   C26       1.0  0.8800606420590484  0.007233135275773517  0.3655992308602305  1.0000
  H   H9        1.0  0.9144308396005819  0.3269865142443824  0.5402055286852352  1.0000
  H   H10       1.0  0.8748026339817924  0.07312065793408284  0.7711371333858499  1.0000
  H   H11       1.0  0.8765548006651529  0.6558274603010226  0.7720540700022527  1.0000
  H   H12       1.0  0.9336688157485775  0.8885544232231465  0.4243370526939254  1.0000
  H   H13       1.0  0.914224706675542  0.4340599036215092  0.5400960457466535  1.0000
  H   H14       1.0  0.76791452602144  0.704649923690893  0.9025186678024943  1.0000
  H   H15       1.0  0.7305914971581773  0.6889245812220995  0.13220604118375978  1.0000
  H   H16       1.0  0.7882139140158994  0.8267485991602277  0.28797053890387214  1.0000
  H   H17       1.0  0.9260571327951799  0.0002609551683885325  0.9841258364576331  1.0000
  H   H18       1.0  0.8930933046901343  0.9100881918120048  0.41654420818648197  1.0000
  H   H19       1.0  0.9156691868578386  0.08016286207631462  0.40869869375868695  1.0000
  H   H20       1.0  0.8198159754559611  0.03505934413619416  0.37853334713556375  1.0000
  C   C27       1.0  0.9060282810954948  0.37694971039492486  0.2086714869765891  1.0000
  C   C28       1.0  0.8320883662744618  0.3314007408874522  0.209640544452959  1.0000
  C   C29       1.0  0.7946016560287753  0.30842431013116056  0.09298417931327241  1.0000
  C   C30       1.0  0.8320370207970205  0.33162968795356296  0.9743343539767952  1.0000
  C   C31       1.0  0.9059773580727545  0.37717914446961043  0.9713730451447096  1.0000
  C   C32       1.0  0.9425597200034748  0.39958118049228375  0.08905102928080799  1.0000
  C   C33       1.0  0.7163795764527257  0.26022888109102715  0.09506413858632312  1.0000
  C   C34       1.0  0.6623464172216416  0.3115070834574829  0.002565570135222295  1.0000
  C   C35       1.0  0.5888298263887501  0.2661302986318026  0.004789774504814215  1.0000
  C   C36       1.0  0.568277700109993  0.16919017211651544  0.09897307180452519  1.0000
  C   C37       1.0  0.62156660606143  0.11654334939037048  0.19231580561442185  1.0000
  C   C38       1.0  0.6951856662969002  0.16255472464914322  0.18964272218212397  1.0000
  O   O3        1.0  0.6038211374977985  0.01882861518286516  0.2887040302333648  1.0000
  C   C39       1.0  0.5314948714333017  0.9630508303523956  0.30294473362026997  1.0000
  H   H21       1.0  0.9342126077499766  0.39424702498579567  0.5357600482758891  1.0000
  H   H22       1.0  0.8030990727023566  0.31537302561333025  0.30119695352214637  1.0000
  H   H23       1.0  0.8037516914895917  0.3124023532973812  0.8843000240515826  1.0000
  H   H24       1.0  0.9996015740531681  0.4347194401284593  0.08753505880715418  1.0000
  H   H25       1.0  0.9341365920832669  0.3945974659882878  0.642786901481212  1.0000
  H   H26       1.0  0.6766846177515091  0.38787982852320724  0.9295972998485378  1.0000
  H   H27       1.0  0.5475626710174916  0.3065198896352157  0.9334205558832562  1.0000
  H   H28       1.0  0.5109527554836025  0.13592661706751952  0.09837668179259751  1.0000
  H   H29       1.0  0.7361204770361492  0.12043118516936047  0.2608300486453077  1.0000
  H   H30       1.0  0.5159492002302848  0.9153466516820047  0.21370118685644335  1.0000
  H   H31       1.0  0.5334472670959987  0.8884810411219606  0.3866717698361639  1.0000
  H   H32       1.0  0.48850004482337195  0.0393866744723097  0.32214427991458683  1.0000
  Zn  Zn1       1.0  0.8233120113119663  0.38106230754467063  0.587964285149345  1.0000
  Zn  Zn2       1.0  0.9886863769352431  0.3730662524085089  0.5920794876334117  1.0000
  C   C40       1.0  0.9059861983683852  0.3719621350348554  0.8272065664464936  1.0000
  C   C41       1.0  0.906013995461855  0.3821679762686201  0.3528373785840535  1.0000
  C   C42       1.0  0.905957089843564  0.6142564830809092  0.5848254694607711  1.0000
  C   C43       1.0  0.9060430478287976  0.1398720706606933  0.595218543544177  1.0000
  O   O4        1.0  0.9687679119784903  0.3808791469401993  0.4027824671956699  1.0000
  O   O5        1.0  0.9687475990566597  0.3671811636906952  0.7803844475626884  1.0000
  O   O6        1.0  0.9687232474471101  0.5628369552802885  0.5846599756834916  1.0000
  O   O7        1.0  0.9687922071618237  0.18522336734010292  0.5985068402997347  1.0000
  O   O8        1.0  0.8432061246512312  0.5689051953431499  0.5815369310718748  1.0000
  O   O9        1.0  0.843230475984505  0.37325096404550306  0.7772613335655232  1.0000
  O   O10       1.0  0.8432507890688711  0.38694890156673  0.3996577918774389  1.0000
  O   O11       1.0  0.8432750842442662  0.1912931127072095  0.5953822623454883  1.0000
