data_image0
_chemical_formula_structural       NC9NC3OCH8C12NCOCH13C13NH9Zn2C4O8
_chemical_formula_sum              "N4 C44 O10 H30 Zn2"
_cell_length_a       17.728193572023454
_cell_length_b       10.299155265289647
_cell_length_c       10.298528502251457
_cell_angle_alpha    85.52481818200185
_cell_angle_beta     90.70114426090622
_cell_angle_gamma    88.43175330785003

_space_group_name_H-M_alt    "P 1"
_space_group_IT_number       1

loop_
  _space_group_symop_operation_xyz
  'x, y, z'

loop_
  _atom_site_type_symbol
  _atom_site_label
  _atom_site_symmetry_multiplicity
  _atom_site_fract_x
  _atom_site_fract_y
  _atom_site_fract_z
  _atom_site_occupancy
  N   N1        1.0  0.7103340209181512  0.3875243947421325  0.5846093835766037  1.0000
  C   C1        1.0  0.6497267248004719  0.3500888089409586  0.5976268441945107  1.0000
  C   C2        1.0  0.5742789669588823  0.30355137341116833  0.6138282261505597  1.0000
  C   C3        1.0  0.5623988412532981  0.17549953105298477  0.6232857643699123  1.0000
  C   C4        1.0  0.4856950901174656  0.12603878956537984  0.6382522957778785  1.0000
  C   C5        1.0  0.4275344922765991  0.20870934948426667  0.6557012811244487  1.0000
  C   C6        1.0  0.3494916375487618  0.16365015016876505  0.6774510345034388  1.0000
  C   C7        1.0  0.2881389308395171  0.24913818364735185  0.641960720963384  1.0000
  C   C8        1.0  0.21386922973144834  0.2098252169910313  0.6621224517227147  1.0000
  C   C9        1.0  0.1515374593135865  0.29785099085614486  0.6245568032830671  1.0000
  N   N2        1.0  0.10143612649611031  0.3686151843142458  0.5943575730019233  1.0000
  C   C10       1.0  0.2003207611417026  0.0849039870434749  0.7188287548405035  1.0000
  C   C11       1.0  0.2607747164999733  0.9997330393539307  0.7557277272947815  1.0000
  C   C12       1.0  0.3349408509209237  0.0385562939005617  0.7356957349526365  1.0000
  O   O1        1.0  0.4408716522977206  0.34250649163328917  0.6543682259069032  1.0000
  C   C13       1.0  0.5085891268298215  0.3999085698058069  0.6057362938724464  1.0000
  H   H1        1.0  0.6093360012668335  0.10603379412585312  0.6212037365192205  1.0000
  H   H2        1.0  0.4780576608955775  0.02238168728271739  0.6362984518204726  1.0000
  H   H3        1.0  0.298017153166724  0.34598712342997584  0.5975012571942666  1.0000
  H   H4        1.0  0.1431102843756919  0.05360746172767983  0.7349797622040513  1.0000
  H   H5        1.0  0.250159688084423  0.9035428589577654  0.8006482034286109  1.0000
  H   H6        1.0  0.3804807306221665  0.9713088467229147  0.7681389571273392  1.0000
  H   H7        1.0  0.4991171774769468  0.43587730385725965  0.5021864884035561  1.0000
  H   H8        1.0  0.5214574917369793  0.4842816437531656  0.6623024218600537  1.0000
  C   C14       1.0  0.9059729844864775  0.996668018635167  0.5896043916134697  1.0000
  C   C15       1.0  0.8930856425302782  0.007048645490928429  0.4543416828800191  1.0000
  C   C16       1.0  0.8864784039109436  0.8951777424478267  0.38564108038439393  1.0000
  C   C17       1.0  0.8929052094520512  0.7717977306427297  0.4540293635868937  1.0000
  C   C18       1.0  0.9058044418920601  0.7594612603457361  0.5893739691160962  1.0000
  C   C19       1.0  0.9122622743289301  0.8724176727328289  0.656328328861767  1.0000
  C   C20       1.0  0.8728460838386171  0.9071328164959173  0.24254949064883924  1.0000
  C   C21       1.0  0.9111203556707775  0.9994278867640225  0.16207603780212998  1.0000
  C   C22       1.0  0.8982976538634123  0.010547221638355753  0.027417471979326313  1.0000
  C   C23       1.0  0.847413534151708  0.9286888040089147  0.9703918902069582  1.0000
  C   C24       1.0  0.8082174551552394  0.838254616315638  0.050774199384630236  1.0000
  C   C25       1.0  0.8210676437996797  0.8268779489692629  0.1853961103372488  1.0000
  N   N3        1.0  0.8321623643885865  0.9397257369882474  0.8324340754772379  1.0000
  C   C26       1.0  0.8872678619085318  0.9740397958500204  0.7355779783969694  1.0000
  O   O2        1.0  0.9564984047273019  0.9732150575830709  0.7651653274584316  1.0000
  C   C27       1.0  0.8631967142649176  0.0017093208482565903  0.5964213753674885  1.0000
  H   H9        1.0  0.9109534320655865  0.3201502422859348  0.6416271040575874  1.0000
  H   H10       1.0  0.8871164045871449  0.10240439699165527  0.40237700115755826  1.0000
  H   H11       1.0  0.8888471595711857  0.6852172490622717  0.40129340805792557  1.0000
  H   H12       1.0  0.9222050910051676  0.8636958905654148  0.7606589005871232  1.0000
  H   H13       1.0  0.9306029572633362  0.5288717083809646  0.8447102614211759  1.0000
  H   H14       1.0  0.951416631972215  0.06251092373742617  0.203177584223051  1.0000
  H   H15       1.0  0.9272503299764542  0.08462839660246368  0.9685514811286091  1.0000
  H   H16       1.0  0.7678487804122184  0.7758794990201049  0.008803707726946497  1.0000
  H   H17       1.0  0.7896900252075383  0.7565300099695954  0.2450347077518351  1.0000
  H   H18       1.0  0.779010426641911  0.9134402002500859  0.8000320688868423  1.0000
  H   H19       1.0  0.808721787261112  0.05779066600366978  0.5906094136254887  1.0000
  H   H20       1.0  0.8562147583082099  0.9084565024286471  0.5510178170303677  1.0000
  H   H21       1.0  0.9061592516795284  0.05974699503107783  0.5420902302594715  1.0000
  C   C28       1.0  0.9058993998314827  0.3781905889037851  0.2080725421073828  1.0000
  C   C29       1.0  0.8274400302946024  0.40184740142207453  0.20362096234956506  1.0000
  C   C30       1.0  0.7876918512732716  0.4136938788861775  0.08421905676396668  1.0000
  C   C31       1.0  0.8274175613183896  0.4015836087307918  0.9683607772447909  1.0000
  C   C32       1.0  0.9058780022748973  0.37793862493633035  0.9709058032420566  1.0000
  C   C33       1.0  0.9446165153519606  0.3663907626403673  0.09121595969923169  1.0000
  C   C34       1.0  0.7047445180802326  0.43869816441753606  0.08052051506194147  1.0000
  C   C35       1.0  0.6714055856985987  0.5282476180006868  0.16057951548140803  1.0000
  C   C36       1.0  0.5933273564463899  0.5517371020175528  0.15697861602619345  1.0000
  C   C37       1.0  0.5475491227508813  0.4860868326338015  0.07350866849125137  1.0000
  C   C38       1.0  0.5801431755400572  0.39680974473359365  0.9935350391774271  1.0000
  C   C39       1.0  0.658213370116244  0.37322627756061144  0.9968991561215867  1.0000
  C   C40       1.0  0.4671674929574277  0.5103199799397173  0.06992218770917313  1.0000
  N   N4        1.0  0.4025460828282926  0.5298019192922918  0.06703893399153249  1.0000
  H   H22       1.0  0.05409450343556643  0.3326830970675785  0.42387030186214614  1.0000
  H   H23       1.0  0.7969612945360616  0.40932927265639285  0.29337512347572603  1.0000
  H   H24       1.0  0.7972219546269266  0.41239142835140385  0.8759014174491786  1.0000
  H   H25       1.0  0.005086667023054492  0.34816271314279446  0.09391199777459902  1.0000
  H   H26       1.0  0.054212187075724394  0.3340673130189824  0.7683286019877658  1.0000
  H   H27       1.0  0.705816388925332  0.5813562468410058  0.22472398205344213  1.0000
  H   H28       1.0  0.5687102473266786  0.6213226802741494  0.21905179740394587  1.0000
  H   H29       1.0  0.5452104584692351  0.3451766185424112  0.9288054051606744  1.0000
  H   H30       1.0  0.6820897739428546  0.30254623971176087  0.9353546279603724  1.0000
  Zn  Zn1       1.0  0.8231976523370742  0.38206413194526334  0.5874300021743211  1.0000
  Zn  Zn2       1.0  0.9885725227179322  0.3740648389686061  0.591547596606893  1.0000
  C   C41       1.0  0.9058815044111532  0.37281223705830735  0.8267155280055691  1.0000
  C   C42       1.0  0.9058904761665726  0.3833182852214343  0.35226224272705275  1.0000
  C   C43       1.0  0.9058325399211904  0.6152789709277593  0.5842416199019276  1.0000
  C   C44       1.0  0.9059393845685467  0.14084999362242256  0.5947362191442844  1.0000
  O   O3        1.0  0.9686463840064348  0.38199783072480353  0.4022162307838588  1.0000
  O   O4        1.0  0.9686412969033505  0.368060433593717  0.7798863252515691  1.0000
  O   O5        1.0  0.9686009114005687  0.5638554280801908  0.5840869074418538  1.0000
  O   O6        1.0  0.9686867130786543  0.1862028482911271  0.5980155497988564  1.0000
  O   O7        1.0  0.8430834055420251  0.5699261253539247  0.580962047570392  1.0000
  O   O8        1.0  0.8431237906984684  0.37413269132819216  0.7767613956545525  1.0000
  O   O9        1.0  0.8431288779055525  0.38807004371273734  0.3990897396056565  1.0000
  O   O10       1.0  0.8431692069740071  0.1922750519574452  0.5948891560034069  1.0000
