data_image0
_chemical_formula_structural       NC9NC3OCH8C16H10C12NH11Zn2C4O8
_chemical_formula_sum              "N3 C45 O9 H29 Zn2"
_cell_length_a       17.728193572023454
_cell_length_b       10.29914801576943
_cell_length_c       10.299774167527174
_cell_angle_alpha    85.55390253719857
_cell_angle_beta     90.69829352168313
_cell_angle_gamma    88.46752555428026

_space_group_name_H-M_alt    "P 1"
_space_group_IT_number       1

loop_
  _space_group_symop_operation_xyz
  'x, y, z'

loop_
  _atom_site_type_symbol
  _atom_site_label
  _atom_site_symmetry_multiplicity
  _atom_site_fract_x
  _atom_site_fract_y
  _atom_site_fract_z
  _atom_site_occupancy
  N   N1        1.0  0.7108915082745089  0.3866171652238255  0.5846936494864647  1.0000
  C   C1        1.0  0.6502701552962151  0.34919010427285846  0.5977131429454758  1.0000
  C   C2        1.0  0.5748049221579478  0.30266327827421335  0.6139170487543812  1.0000
  C   C3        1.0  0.5628780850115572  0.17461836921818708  0.6233875406222746  1.0000
  C   C4        1.0  0.4861558489286477  0.12516747607573642  0.6383571398141166  1.0000
  C   C5        1.0  0.4280244870380539  0.20784848849098436  0.6557937322495451  1.0000
  C   C6        1.0  0.3499644750256335  0.16280340433291207  0.6775448919897222  1.0000
  C   C7        1.0  0.2886440939855781  0.248268317559321  0.6420509223442803  1.0000
  C   C8        1.0  0.2143593772356993  0.2089684174482025  0.6622136772643037  1.0000
  C   C9        1.0  0.1520609320402769  0.296969737132591  0.6246444390059105  1.0000
  N   N2        1.0  0.1019863894762602  0.36771427174255544  0.594442322873473  1.0000
  C   C10       1.0  0.2007634825994743  0.08408404335232023  0.7189244939559198  1.0000
  C   C11       1.0  0.26118517195834723  0.9989371063746416  0.7558268454241464  1.0000
  C   C12       1.0  0.3353661397224352  0.03774738019426627  0.7357938624513898  1.0000
  O   O1        1.0  0.4414101200175437  0.34164380436343045  0.6544456795696727  1.0000
  C   C13       1.0  0.5091502698619021  0.39901463934744674  0.6058155358987756  1.0000
  H   H1        1.0  0.609790186971997  0.10515182226905062  0.6213137738874048  1.0000
  H   H2        1.0  0.47848098287657714  0.021509895807026114  0.636415425870853  1.0000
  H   H3        1.0  0.2985591041841479  0.34508836925287034  0.5975880441860584  1.0000
  H   H4        1.0  0.1435410481516898  0.05279798384836276  0.7350762994413325  1.0000
  H   H5        1.0  0.2505335760477713  0.9027761014177994  0.8007505821081817  1.0000
  H   H6        1.0  0.3808804141246993  0.9705209882755071  0.7682391863607212  1.0000
  H   H7        1.0  0.49969538660150237  0.43491748135363784  0.5022793537530079  1.0000
  H   H8        1.0  0.5220469572590387  0.4834229451235086  0.6623623846569406  1.0000
  C   C14       1.0  0.9063888266342193  0.9957668218205686  0.5897322806878027  1.0000
  C   C15       1.0  0.8891673217386631  0.006159187499845897  0.45583515736069957  1.0000
  C   C16       1.0  0.8804911197602889  0.8942958482174249  0.3877832599379445  1.0000
  C   C17       1.0  0.8892680865406206  0.7709023844634976  0.45543309736726045  1.0000
  C   C18       1.0  0.9064963123583609  0.758554276436938  0.5894151372259389  1.0000
  C   C19       1.0  0.9149519536725784  0.8715074960558143  0.6557397901429411  1.0000
  C   C20       1.0  0.8622730307739345  0.9063353144380807  0.24613625613545476  1.0000
  C   C21       1.0  0.8979825470710578  0.8235994785667526  0.16181259627811206  1.0000
  C   C22       1.0  0.880809945606885  0.8350570602704291  0.028499237374945974  1.0000
  C   C23       1.0  0.8277515264876235  0.9291587835277013  0.9777009713596656  1.0000
  C   C24       1.0  0.7919044942336935  0.011881208058850179  0.060737321499061636  1.0000
  C   C25       1.0  0.8090232893780823  0.000667498782219722  0.19407028480818078  1.0000
  C   C26       1.0  0.8101001668292516  0.9408293206105275  0.8404431138478947  1.0000
  C   C27       1.0  0.7953173433668459  0.9506032829407521  0.7254916422202635  1.0000
  C   C28       1.0  0.7780068316769276  0.9620484620912304  0.5908846417190379  1.0000
  C   C29       1.0  0.7632264892517592  0.9718209327087755  0.4759517388487313  1.0000
  H   H9        1.0  0.9129741443972827  0.3192459525767475  0.6412479757932743  1.0000
  H   H10       1.0  0.883477918155329  0.10147440219314818  0.4037856427729285  1.0000
  H   H11       1.0  0.8816308098403689  0.6843633066854702  0.4038295876969198  1.0000
  H   H12       1.0  0.9282331351398322  0.8627758138664168  0.7590188789055654  1.0000
  H   H13       1.0  0.938546342433498  0.5279639464220318  0.8424657940731215  1.0000
  H   H14       1.0  0.9399010594061509  0.7511791726659818  0.1987055304871126  1.0000
  H   H15       1.0  0.9090475761540283  0.7707506595293075  0.9650312006914681  1.0000
  H   H16       1.0  0.7505863069659431  0.08483645176171817  0.022489521625953524  1.0000
  H   H17       1.0  0.7799060030274501  0.06462637544159078  0.2567136441721076  1.0000
  H   H18       1.0  0.7502481586993544  0.9804019845877889  0.3750309603487696  1.0000
  C   C30       1.0  0.9064682330089571  0.3770447848120495  0.20822229211819887  1.0000
  C   C31       1.0  0.8325532759493733  0.33131124649446164  0.20922128111120508  1.0000
  C   C32       1.0  0.7950735761339126  0.30825480447798914  0.09257895067009203  1.0000
  C   C33       1.0  0.8325014639189405  0.3315450715752537  0.97391518157806  1.0000
  C   C34       1.0  0.9064169006954433  0.3772763600188538  0.9709250611146185  1.0000
  C   C35       1.0  0.9429862576706505  0.39977063451785866  0.08858760722634207  1.0000
  C   C36       1.0  0.7168758355213601  0.2598719383191104  0.09468917153896639  1.0000
  C   C37       1.0  0.695653402219561  0.1624353987352325  0.18950019465138568  1.0000
  C   C38       1.0  0.6220501915911767  0.11695314295355219  0.19135251963814204  1.0000
  C   C39       1.0  0.5685050969129232  0.16807097997395215  0.09869287118464798  1.0000
  C   C40       1.0  0.5892294935062459  0.26514139722044927  0.0040289620012130545  1.0000
  C   C41       1.0  0.6628100583177716  0.31072601806096856  0.0019097499637539261  1.0000
  N   N3        1.0  0.4932260858449641  0.12149356892560959  0.1007241174792235  1.0000
  H   H19       1.0  0.9346460423758131  0.3944170661286601  0.5352995744561102  1.0000
  H   H20       1.0  0.8035782221329749  0.3152070663223805  0.300792054519712  1.0000
  H   H21       1.0  0.8042366270599787  0.3122338862309326  0.8838888898126336  1.0000
  H   H22       1.0  8.407651253872217e-06  0.43505105894617313  0.08704895054400819  1.0000
  H   H23       1.0  0.9345707133479703  0.394757685798629  0.6423277778768326  1.0000
  H   H24       1.0  0.7362414971823622  0.1202020162356714  0.2611786246730361  1.0000
  H   H25       1.0  0.6068163647881114  0.041636292445453416  0.26482303031070775  1.0000
  H   H26       1.0  0.5483261296960853  0.30572456497777467  0.9320733186262622  1.0000
  H   H27       1.0  0.6771618060005762  0.3869520711986869  0.9287489065109256  1.0000
  H   H28       1.0  0.4529174642835459  0.15900127816921583  0.032039908231418446  1.0000
  H   H29       1.0  0.4772454708177263  0.049158335745823845  0.17092764318734344  1.0000
  Zn  Zn1       1.0  0.8237530533442586  0.3811587301412309  0.5875144068568265  1.0000
  Zn  Zn2       1.0  0.9891248677920553  0.37316210550531026  0.5916322070921769  1.0000
  C   C42       1.0  0.9064242004124151  0.37205855846246294  0.8267600459839883  1.0000
  C   C43       1.0  0.9064555268013298  0.38226382864755126  0.3523867397104645  1.0000
  C   C44       1.0  0.9064724654371213  0.6143698377376496  0.5843000312477153  1.0000
  C   C45       1.0  0.9064072051222251  0.13995099169752678  0.5948468229259027  1.0000
  O   O2        1.0  0.969209003423972  0.3809750438764319  0.402332331366166  1.0000
  O   O3        1.0  0.9691841043994122  0.36727711025164544  0.7799393960060423  1.0000
  O   O4        1.0  0.9692222329220226  0.5629465740295678  0.5841511970341142  1.0000
  O   O5        1.0  0.9691708184790244  0.18530559208860398  0.5981204315589081  1.0000
  O   O6        1.0  0.843707046224006  0.569015246288205  0.581026180978061  1.0000
  O   O7        1.0  0.8436689179225105  0.3733473429153866  0.7768143100587894  1.0000
  O   O8        1.0  0.8436938170959385  0.38704523080425424  0.39920568410999135  1.0000
  O   O9        1.0  0.8436556321400448  0.19137576975659898  0.5949938816698856  1.0000
