data_image0
_chemical_formula_structural       NC9NC3OCH8C12OCH12C12SCH12Zn2C4O8
_chemical_formula_sum              "N2 C43 O10 H32 S1 Zn2"
_cell_length_a       17.728193572023454
_cell_length_b       10.29979075500242
_cell_length_c       10.299780138516091
_cell_angle_alpha    85.57237843546018
_cell_angle_beta     90.6970768647591
_cell_angle_gamma    88.43583692371088

_space_group_name_H-M_alt    "P 1"
_space_group_IT_number       1

loop_
  _space_group_symop_operation_xyz
  'x, y, z'

loop_
  _atom_site_type_symbol
  _atom_site_label
  _atom_site_symmetry_multiplicity
  _atom_site_fract_x
  _atom_site_fract_y
  _atom_site_fract_z
  _atom_site_occupancy
  N   N1        1.0  0.7104668239129026  0.3865275393855121  0.5851432040655911  1.0000
  C   C1        1.0  0.649857241309489  0.34910309513802784  0.5981505691043927  1.0000
  C   C2        1.0  0.574406640085014  0.3025795219020466  0.6143393976658362  1.0000
  C   C3        1.0  0.562520499767001  0.17454384021503566  0.6237684040277272  1.0000
  C   C4        1.0  0.4858138426716879  0.12509642193385018  0.6387219789318341  1.0000
  C   C5        1.0  0.42765591452268364  0.2077712912952352  0.6561853539239408  1.0000
  C   C6        1.0  0.3496099944129673  0.16272930874151692  0.6779219151878637  1.0000
  C   C7        1.0  0.28826280602504917  0.24818829192861558  0.642455642186792  1.0000
  C   C8        1.0  0.2139903693770045  0.20889108853121607  0.6626056602909232  1.0000
  C   C9        1.0  0.151664333728313  0.2968863102029098  0.6250649408860613  1.0000
  N   N2        1.0  0.1015676111141793  0.3676259426021973  0.594885751148702  1.0000
  C   C10       1.0  0.2004335874291367  0.08401534160420954  0.7192760045451614  1.0000
  C   C11       1.0  0.2608819655903803  0.9988743005178928  0.7561507620613943  1.0000
  C   C12       1.0  0.3350508077294957  0.03768191217402417  0.7361303572480882  1.0000
  O   O1        1.0  0.440998918646849  0.34155689834570513  0.6548806478690083  1.0000
  C   C13       1.0  0.5087213761046468  0.3989239472055959  0.6062691020895092  1.0000
  H   H1        1.0  0.6094547684994569  0.10508235584751802  0.6216721323569883  1.0000
  H   H2        1.0  0.4781720396747202  0.021446386976725407  0.6367466829880775  1.0000
  H   H3        1.0  0.2981474990932459  0.345001659064998  0.5980241415148368  1.0000
  H   H4        1.0  0.1432209277582555  0.052731428124745516  0.7354176704198485  1.0000
  H   H5        1.0  0.2502604711218986  0.9027199286270713  0.8010433346677219  1.0000
  H   H6        1.0  0.38058611343726845  0.9704601492964773  0.7685538940360939  1.0000
  H   H7        1.0  0.49925631342612625  0.43482499334936486  0.502744575373987  1.0000
  H   H8        1.0  0.521590469189729  0.48332567762526457  0.6628432840086667  1.0000
  C   C14       1.0  0.9060886586260459  0.9957055493002767  0.5900552084339812  1.0000
  C   C15       1.0  0.8842332932803133  0.9856319034401609  0.720943235974685  1.0000
  C   C16       1.0  0.8730991298432628  0.8633941101828205  0.78723055334215  1.0000
  C   C17       1.0  0.8840977197399527  0.7503561442681037  0.7208740764790591  1.0000
  C   C18       1.0  0.9059530516600524  0.7584375767184419  0.589985115630757  1.0000
  C   C19       1.0  0.9168279001597508  0.881559457739729  0.5253092862110527  1.0000
  C   C20       1.0  0.8499819888604851  0.8537906451343376  0.9257041082439426  1.0000
  C   C21       1.0  0.7949153663030543  0.7655981510840373  0.9693959984809781  1.0000
  C   C22       1.0  0.7732260955690228  0.7568299757701201  0.099589171295278  1.0000
  C   C23       1.0  0.8061151136202591  0.8356098110206133  0.18775289690904007  1.0000
  C   C24       1.0  0.8613824915513584  0.9244022028030886  0.14593763343322919  1.0000
  C   C25       1.0  0.88283785425531  0.9328203501436771  0.015211956629428869  1.0000
  O   O2        1.0  0.8962585731434531  0.005439669127015101  0.23067126509285574  1.0000
  C   C26       1.0  0.8800687574339217  0.007236357137137217  0.36559829062401084  1.0000
  H   H9        1.0  0.9144495135681256  0.3269939279418985  0.5402033651449283  1.0000
  H   H10       1.0  0.8748183538284818  0.07312689882467494  0.7711353121059392  1.0000
  H   H11       1.0  0.8765705087822152  0.655833696534869  0.772052250081321  1.0000
  H   H12       1.0  0.933688971927626  0.8885624253691392  0.424334717426623  1.0000
  H   H13       1.0  0.9142433820436122  0.4340673178750442  0.5400938820440833  1.0000
  H   H14       1.0  0.7679285652106409  0.7046554973485455  0.9025170412412589  1.0000
  H   H15       1.0  0.7306025981429665  0.6889289883917686  0.13220475503886364  1.0000
  H   H16       1.0  0.7882230224317127  0.8267522152658855  0.2879694836152893  1.0000
  H   H17       1.0  0.9260701280500129  0.0002661143766951035  0.9841243308452041  1.0000
  H   H18       1.0  0.8931007683672025  0.9100911549447195  0.4165433434550776  1.0000
  H   H19       1.0  0.915676750896214  0.08016586505318002  0.4086978173995591  1.0000
  H   H20       1.0  0.8198239253751676  0.03506250031048541  0.3785324260688112  1.0000
  C   C27       1.0  0.9060511961093342  0.3769588078178898  0.20866883207446563  1.0000
  C   C28       1.0  0.8343078672352354  0.3224147514897935  0.21038115193469742  1.0000
  C   C29       1.0  0.7979250764325839  0.29489255385882074  0.0941011271747132  1.0000
  C   C30       1.0  0.8342460443518691  0.32264317756088134  0.9750756956927797  1.0000
  C   C31       1.0  0.9059904989343612  0.37718435601101574  0.9713715658243203  1.0000
  C   C32       1.0  0.9414912924204724  0.40403753725107006  0.08868115306001023  1.0000
  C   C33       1.0  0.7220256134004586  0.23720459171193764  0.09697540008013505  1.0000
  C   C34       1.0  0.6661279896697304  0.28156692013897233  0.004622841401310529  1.0000
  C   C35       1.0  0.5947079626789982  0.22724011175403724  0.007565030175656018  1.0000
  C   C36       1.0  0.578143808260963  0.12823116901228904  0.10272386042234394  1.0000
  C   C37       1.0  0.6333699431269034  0.08310236288054185  0.19465411129304555  1.0000
  C   C38       1.0  0.7048366886141448  0.1372534841251638  0.19207550938222195  1.0000
  S   S1        1.0  0.4865330737070929  0.058387706742462964  0.10604965895199414  1.0000
  C   C39       1.0  0.44781275428039174  0.17447389971649674  0.2138040889006121  1.0000
  H   H21       1.0  0.9333997019457896  0.397694536159245  0.5354736477603861  1.0000
  H   H22       1.0  0.8061086481490564  0.3028553491976933  0.30222986816987696  1.0000
  H   H23       1.0  0.80688447704611  0.29996421793983985  0.8853239916260724  1.0000
  H   H24       1.0  0.9968383923293855  0.4461151628640039  0.0865918035524409  1.0000
  H   H25       1.0  0.9333116932560475  0.3980262523106233  0.6425018580465771  1.0000
  H   H26       1.0  0.6773357359426676  0.35939281131403145  0.9312169281055382  1.0000
  H   H27       1.0  0.5521815608947364  0.26262854324900253  0.9361714552348857  1.0000
  H   H28       1.0  0.6210086557519231  0.006028193845847518  0.2681560929381763  1.0000
  H   H29       1.0  0.7469574301873915  0.09983367632907814  0.26335834323377916  1.0000
  H   H30       1.0  0.4797250442550662  0.16690151970699407  0.3076136800819309  1.0000
  H   H31       1.0  0.3879295734270856  0.15223933726347116  0.23308690738544202  1.0000
  H   H32       1.0  0.4507119040665761  0.27505545924325037  0.16727621180376717  1.0000
  Zn  Zn1       1.0  0.8233300743404459  0.3810694786950466  0.587962192391601  1.0000
  Zn  Zn2       1.0  0.9887043873212726  0.3730734026594589  0.59207740097475  1.0000
  C   C40       1.0  0.9060012009642602  0.3719680911717884  0.8272048282662803  1.0000
  C   C41       1.0  0.906035066278286  0.3821763415321382  0.3528349373481161  1.0000
  C   C42       1.0  0.9059751930243688  0.6142636701720428  0.5848233720510336  1.0000
  C   C43       1.0  0.9060610180594293  0.1398792049696651  0.5952164615378643  1.0000
  O   O3        1.0  0.9687883438878817  0.3808872585530927  0.4027800999826274  1.0000
  O   O4        1.0  0.9687632006099535  0.36718735761797006  0.7803826399880889  1.0000
  O   O5        1.0  0.9687413527449427  0.5628441432118971  0.5846578780284784  1.0000
  O   O6        1.0  0.9688101353279399  0.1852304849491644  0.5985047631669591  1.0000
  O   O7        1.0  0.8432242698996424  0.5689123991354212  0.581534828788242  1.0000
  O   O8        1.0  0.8432461174892648  0.3732571738337933  0.7772595213622011  1.0000
  O   O9        1.0  0.8432712609497014  0.3869570290485682  0.39965542003335996  1.0000
  O   O10       1.0  0.843293052380576  0.1913002461847213  0.5953801805818211  1.0000
