data_image0
_chemical_formula_structural       NC9NC3OCH8C12SCH12C13F3H9Zn2C4O8
_chemical_formula_sum              "N2 C43 O9 H29 S1 F3 Zn2"
_cell_length_a       17.728193572023454
_cell_length_b       10.299776766347529
_cell_length_c       10.2985328690268
_cell_angle_alpha    85.58005012136331
_cell_angle_beta     90.71056303588647
_cell_angle_gamma    88.43488659094774

_space_group_name_H-M_alt    "P 1"
_space_group_IT_number       1

loop_
  _space_group_symop_operation_xyz
  'x, y, z'

loop_
  _atom_site_type_symbol
  _atom_site_label
  _atom_site_symmetry_multiplicity
  _atom_site_fract_x
  _atom_site_fract_y
  _atom_site_fract_z
  _atom_site_occupancy
  N   N1        1.0  0.7102616963192674  0.3864884945257372  0.585117210406878  1.0000
  C   C1        1.0  0.6496542153475151  0.34906456748125114  0.598122195995461  1.0000
  C   C2        1.0  0.5742062293149638  0.30254163760119246  0.6143080689004201  1.0000
  C   C3        1.0  0.5623224949096681  0.17450697790964975  0.6237246436391635  1.0000
  C   C4        1.0  0.4856183100734102  0.12506019540800506  0.6386748015138726  1.0000
  C   C5        1.0  0.4274620411187202  0.20773490678888074  0.6561490854588368  1.0000
  C   C6        1.0  0.3494194800166261  0.16269367632414666  0.6778835270524506  1.0000
  C   C7        1.0  0.2880667062829439  0.24815135563441704  0.6424219823173638  1.0000
  C   C8        1.0  0.2137973619814294  0.20885483367435764  0.662570296185651  1.0000
  C   C9        1.0  0.1514654358296268  0.29684869099445965  0.6250343203410558  1.0000
  N   N2        1.0  0.10136397780962861  0.3675872265853697  0.5948589439557039  1.0000
  C   C10       1.0  0.200249402556  0.08398109529231812  0.7192343242185244  1.0000
  C   C11       1.0  0.2607035554155067  0.9988413860617779  0.7561045595363611  1.0000
  C   C12       1.0  0.33486932717034007  0.03764832218246528  0.7360858228690874  1.0000
  O   O1        1.0  0.4408036972911084  0.3415196281178732  0.6548584151575501  1.0000
  C   C13       1.0  0.5085190219099684  0.3988852730900643  0.606247008572977  1.0000
  H   H1        1.0  0.6092570851385404  0.10504589429581657  0.6216207452382054  1.0000
  H   H2        1.0  0.4779771440593378  0.021410783020784585  0.6366882660485018  1.0000
  H   H3        1.0  0.2979444917528215  0.344963155014707  0.5979953177522108  1.0000
  H   H4        1.0  0.1430392183703985  0.052697726437587855  0.7353746456778969  1.0000
  H   H5        1.0  0.2500890256776703  0.9026885875275852  0.800992422372399  1.0000
  H   H6        1.0  0.38040964367357194  0.9704276813863447  0.7685061941727793  1.0000
  H   H7        1.0  0.49903952337469903  0.4347838826874211  0.5027136246282939  1.0000
  H   H8        1.0  0.5213950942366941  0.48328766798963985  0.6628370679956248  1.0000
  C   C14       1.0  0.905887618881827  0.9956691153161986  0.5899883474120937  1.0000
  C   C15       1.0  0.910430183465525  0.9839306885390247  0.7266248098748536  1.0000
  C   C16       1.0  0.9126592798903758  0.8608476263250119  0.7958631421584821  1.0000
  C   C17       1.0  0.9102858830282126  0.748649890699611  0.7266364069576361  1.0000
  C   C18       1.0  0.9057453339120113  0.7583962723269205  0.589999245263163  1.0000
  C   C19       1.0  0.9035711941496822  0.8823437651096608  0.5224400615710381  1.0000
  C   C20       1.0  0.9174564841201818  0.8494940033279738  0.9404088954760292  1.0000
  C   C21       1.0  0.8742701249035147  0.7581439464204002  0.013380990515052926  1.0000
  C   C22       1.0  0.8788075199875667  0.7476922179887764  0.149412693445251  1.0000
  C   C23       1.0  0.9263432199043952  0.8283216338498146  0.21427441417157467  1.0000
  C   C24       1.0  0.969709747862499  0.9190896279769998  0.1426799664266667  1.0000
  C   C25       1.0  0.9652830101669363  0.9298858940329771  0.006640604074523493  1.0000
  S   S1        1.0  0.9322485414230336  0.8144460688071717  0.3888238772993615  1.0000
  C   C26       1.0  0.8564163134067991  0.934178856294054  0.40646507903354967  1.0000
  H   H9        1.0  0.9041863850371956  0.3275940358926337  0.5379243922897852  1.0000
  H   H10       1.0  0.9112045523111922  0.07074097670634227  0.779606083835614  1.0000
  H   H11       1.0  0.9130279381556071  0.6535202149588135  0.7794705429556732  1.0000
  H   H12       1.0  0.9000673146923396  0.8906309490322919  0.4170308533940408  1.0000
  H   H13       1.0  0.9039775025081447  0.43465813875232867  0.5379382973872102  1.0000
  H   H14       1.0  0.8362782315102719  0.6960011493564571  0.9653172934654399  1.0000
  H   H15       1.0  0.8450706322673762  0.6772778867473471  0.20429770286402615  1.0000
  H   H16       1.0  0.006898552726037455  0.9813276117223543  0.19231270397342226  1.0000
  H   H17       1.0  0.9999724456362625  0.9998856836812345  0.9531924613215845  1.0000
  H   H18       1.0  0.8715207908949311  0.029763231092619247  0.35796027728944413  1.0000
  H   H19       1.0  0.8476777487157291  0.9453136513180623  0.5115339567814358  1.0000
  H   H20       1.0  0.8033111516920429  0.9011995908630339  0.36301731899309897  1.0000
  C   C27       1.0  0.9057947969048403  0.3769118008526766  0.2085957603844062  1.0000
  C   C28       1.0  0.9814742675581142  0.33236341177769124  0.2126931538232728  1.0000
  C   C29       1.0  0.019821600109336757  0.30990907564583003  0.09759848007299166  1.0000
  C   C30       1.0  0.9815187716483511  0.33261687509632676  0.977393590660979  1.0000
  C   C31       1.0  0.9058381272441365  0.37715361618492005  0.9713918185405483  1.0000
  C   C32       1.0  0.8684594502210615  0.39901149388171464  0.087502306866031  1.0000
  C   C33       1.0  0.09983282008998029  0.26282299308139767  0.10286483891130982  1.0000
  C   C34       1.0  0.15193096505766746  0.3149050739479784  0.012621890429172389  1.0000
  C   C35       1.0  0.22723223074334875  0.2706928781679723  0.017599727775958973  1.0000
  C   C36       1.0  0.251805914644194  0.1721102116337192  0.11168148474009709  1.0000
  C   C37       1.0  0.20014426473485436  0.12182606194837042  0.20351266693611514  1.0000
  C   C38       1.0  0.12484790530496359  0.16607107524527698  0.1986458734020231  1.0000
  C   C39       1.0  0.33363372471094777  0.12786949624350652  0.12000245106225305  1.0000
  F   F1        1.0  0.3723206950427296  0.20531356503723552  0.20045226381851333  1.0000
  F   F2        1.0  0.36577045175313816  0.1374894386340102  0.9979459279985439  1.0000
  F   F3        1.0  0.340646470372886  0.9994108066077048  0.17006079536957186  1.0000
  H   H21       1.0  0.7629324289189683  0.4619032620443855  0.40811873365078455  1.0000
  H   H22       1.0  0.011030023702864433  0.3167756410187621  0.305508077493887  1.0000
  H   H23       1.0  0.01050447886497774  0.31383470842503236  0.8884845719168233  1.0000
  H   H24       1.0  0.810131540491939  0.43334058094043404  0.08361123437537565  1.0000
  H   H25       1.0  0.762691011163054  0.4605753197369573  0.7527784235489938  1.0000
  H   H26       1.0  0.134719878077872  0.39150031925811923  0.9394653351881095  1.0000
  H   H27       1.0  0.26634854804872177  0.31402827550289825  0.9480896247854571  1.0000
  H   H28       1.0  0.21795814560960647  0.04809319006978474  0.27912716957099515  1.0000
  H   H29       1.0  0.0860032196976459  0.12367656722320564  0.26918243736823966  1.0000
  Zn  Zn1       1.0  0.8231253790197326  0.3810305289143172  0.5879359645140845  1.0000
  Zn  Zn2       1.0  0.9885003232876666  0.3730345918582856  0.592050828177378  1.0000
  C   C40       1.0  0.9058292205925498  0.37193429852188786  0.8272069067150967  1.0000
  C   C41       1.0  0.9057982873056066  0.3821323735938589  0.3527800584100931  1.0000
  C   C42       1.0  0.905768030215192  0.6142231581121171  0.5848215033151227  1.0000
  C   C43       1.0  0.9058594215471099  0.13984195645284658  0.5951655296276197  1.0000
  O   O2        1.0  0.9685583892640185  0.3808443633183747  0.4027311952019872  1.0000
  O   O3        1.0  0.9685848749793211  0.3671525977450931  0.7803784823436388  1.0000
  O   O4        1.0  0.9685346170320788  0.5628039573585115  0.5846505331494642  1.0000
  O   O5        1.0  0.968608590772729  0.18519301569277302  0.5984590456100696  1.0000
  O   O6        1.0  0.8430170551003172  0.568872107809862  0.5815277456703605  1.0000
  O   O7        1.0  0.8430673127490611  0.3732223084772581  0.7772556256359495  1.0000
  O   O8        1.0  0.8430408270036848  0.3869140282972101  0.39960677697503444  1.0000
  O   O9        1.0  0.8430910285165742  0.19126267141382414  0.5953347247581771  1.0000
