data_image0
_chemical_formula_structural       NC9NC3OCH8C16H10C13OH12Zn2C4O8
_chemical_formula_sum              "N2 C46 O10 H30 Zn2"
_cell_length_a       17.728193572023454
_cell_length_b       10.29914801576943
_cell_length_c       10.299153481560891
_cell_angle_alpha    85.55882765748771
_cell_angle_beta     90.72181207759093
_cell_angle_gamma    88.46752555428026

_space_group_name_H-M_alt    "P 1"
_space_group_IT_number       1

loop_
  _space_group_symop_operation_xyz
  'x, y, z'

loop_
  _atom_site_type_symbol
  _atom_site_label
  _atom_site_symmetry_multiplicity
  _atom_site_fract_x
  _atom_site_fract_y
  _atom_site_fract_z
  _atom_site_occupancy
  N   N1        1.0  0.7105556657859092  0.38651124399061976  0.5846093976190794  1.0000
  C   C1        1.0  0.6499374022441052  0.34908515741583823  0.5976296661163962  1.0000
  C   C2        1.0  0.5744760141815347  0.3025595441141373  0.6138345365287061  1.0000
  C   C3        1.0  0.5625514243179011  0.1745153438277547  0.6233055921661494  1.0000
  C   C4        1.0  0.485832740418195  0.12506557100699744  0.6382760824842735  1.0000
  C   C5        1.0  0.4277055161113787  0.20774788837320024  0.6557137129037915  1.0000
  C   C6        1.0  0.3496506654999613  0.16270443206740337  0.6774661674702271  1.0000
  C   C7        1.0  0.288321861984382  0.2481666889324987  0.641970084901867  1.0000
  C   C8        1.0  0.214041929717938  0.20886829779776916  0.6621340400918907  1.0000
  C   C9        1.0  0.1517345695999853  0.29686680580817226  0.6245625653717741  1.0000
  N   N2        1.0  0.10165286028098361  0.3676090800980405  0.5943586513355246  1.0000
  C   C10       1.0  0.2004594921695028  0.08398816792762465  0.7188482327255461  1.0000
  C   C11       1.0  0.2608899382032452  0.9988439927142629  0.7557527809563469  1.0000
  C   C12       1.0  0.3350661522778913  0.03765276726960409  0.7357186054387932  1.0000
  O   O1        1.0  0.4410908292072147  0.34154310335766347  0.6543655799756003  1.0000
  C   C13       1.0  0.5088194394520613  0.3989102988718318  0.6057325413975938  1.0000
  H   H1        1.0  0.6094630341877197  0.10504864167834671  0.6212317019818798  1.0000
  H   H2        1.0  0.47815741361072484  0.02140784542081864  0.6363342529525895  1.0000
  H   H3        1.0  0.2982263214469606  0.344983413033485  0.5975045599099664  1.0000
  H   H4        1.0  0.1432408904343657  0.052703317221434176  0.7350009997128788  1.0000
  H   H5        1.0  0.2502490023872274  0.9026863498405396  0.8006791919085392  1.0000
  H   H6        1.0  0.3805881257329585  0.9704288035521452  0.7681658607880042  1.0000
  H   H7        1.0  0.4993399877658508  0.4348053922516639  0.5021901958394421  1.0000
  H   H8        1.0  0.5217295450285216  0.4833228366023057  0.66228275633694  1.0000
  C   C14       1.0  0.9060541797782409  0.9956612776774755  0.5896483287654344  1.0000
  C   C15       1.0  0.8888009020137945  0.00604362252386359  0.4557432346674284  1.0000
  C   C16       1.0  0.8801085517869679  0.8941751902515792  0.3876872861786729  1.0000
  C   C17       1.0  0.8889015714096735  0.7707867893974286  0.4553411507397327  1.0000
  C   C18       1.0  0.9061615902464144  0.758448708558894  0.5893311664243164  1.0000
  C   C19       1.0  0.9146329699458114  0.8714068919010142  0.6556597675860645  1.0000
  C   C20       1.0  0.8618568509382472  0.9062040556399013  0.24603185026212082  1.0000
  C   C21       1.0  0.8975463578093091  0.8234619090033897  0.1617031706959322  1.0000
  C   C22       1.0  0.8803421219995394  0.8349095135629852  0.02838187577281448  1.0000
  C   C23       1.0  0.8272716488002062  0.9290074350885834  0.977580585784124  1.0000
  C   C24       1.0  0.7914443205025717  0.011736074042923761  0.060621879000018586  1.0000
  C   C25       1.0  0.8085947546445486  0.0005323433775641373  0.1939627794961214  1.0000
  C   C26       1.0  0.8095877187937753  0.9406676998218723  0.8403145574400774  1.0000
  C   C27       1.0  0.7947776181356687  0.9504330592078446  0.7253562428585236  1.0000
  C   C28       1.0  0.7774351651278761  0.9618681643983737  0.590741229328068  1.0000
  C   C29       1.0  0.7626275499132454  0.9716320334613482  0.47580148460921956  1.0000
  H   H9        1.0  0.9126517218623782  0.31914426385757166  0.6411670905522018  1.0000
  H   H10       1.0  0.8830991474376854  0.10135494184230853  0.403690621620586  1.0000
  H   H11       1.0  0.8812520495505541  0.6842438496234597  0.4037345691605774  1.0000
  H   H12       1.0  0.9279386588323798  0.8626829390971604  0.7589450044565429  1.0000
  H   H13       1.0  0.9382716675066056  0.5278773168025682  0.8423968871411509  1.0000
  H   H14       1.0  0.939473624584621  0.7510443641621497  0.19859830110690657  1.0000
  H   H15       1.0  0.9085646920169406  0.7705983628871855  0.9649100608962917  1.0000
  H   H16       1.0  0.7501170572942746  0.08468845528839641  0.022371802271046848  1.0000
  H   H17       1.0  0.7794923331333875  0.06449590825293416  0.25660986796082175  1.0000
  H   H18       1.0  0.7496252715523746  0.9802055324502675  0.37487469838941445  1.0000
  C   C30       1.0  0.9060430564496813  0.3769106885406803  0.20811562926193883  1.0000
  C   C31       1.0  0.8280181822705237  0.3562994708338132  0.20685233454538388  1.0000
  C   C32       1.0  0.788594833499536  0.3460053136642878  0.08904760441560411  1.0000
  C   C33       1.0  0.8281962730032519  0.35660818881913414  0.9715486733125869  1.0000
  C   C34       1.0  0.9061727377337435  0.377199310137847  0.9708638233131293  1.0000
  C   C35       1.0  0.9446408201507691  0.3872267206836537  0.08966948299674904  1.0000
  C   C36       1.0  0.706103301098201  0.3242272659000831  0.08868505765662738  1.0000
  C   C37       1.0  0.6583845097960545  0.39177574814517224  0.9948005387814729  1.0000
  C   C38       1.0  0.580755114350332  0.3713252658612647  0.9945372974562021  1.0000
  C   C39       1.0  0.5495377771040617  0.2821142614898575  0.08725716216514812  1.0000
  C   C40       1.0  0.5967504666358978  0.21568661055800997  0.18204713549632223  1.0000
  C   C41       1.0  0.6743834378995457  0.2361072701685416  0.18248862805283594  1.0000
  C   C42       1.0  0.4659060868489536  0.26286765885989927  0.08909856410684047  1.0000
  O   O2        1.0  0.4320232995899882  0.3521005771270438  0.16772437972959375  1.0000
  H   H19       1.0  0.05322301644810579  0.41664972041133885  0.4177257921313451  1.0000
  H   H20       1.0  0.7975925421845738  0.3500056247781109  0.2975727223202622  1.0000
  H   H21       1.0  0.7982534846080369  0.34700216948536844  0.880627777194189  1.0000
  H   H22       1.0  0.004785992865881328  0.40311293432581485  0.08985704672713335  1.0000
  H   H23       1.0  0.936155256988992  0.385205784671105  0.6431180693606091  1.0000
  H   H24       1.0  0.6809528180406174  0.46194711805516997  0.9227755706443079  1.0000
  H   H25       1.0  0.5449576016931332  0.4253400449588669  0.9221421793980569  1.0000
  H   H26       1.0  0.5734866074414336  0.14775543681963832  0.2554937201234089  1.0000
  H   H27       1.0  0.7097273817775372  0.18191389564843785  0.25539573712443064  1.0000
  H   H28       1.0  0.4539145291658132  0.1616513629893046  0.12766121416157494  1.0000
  H   H29       1.0  0.44202156289150535  0.2773884130288855  0.9883667055106016  1.0000
  H   H30       1.0  0.3771621605252744  0.33539686891343146  0.16566153792446014  1.0000
  Zn  Zn1       1.0  0.823417880202034  0.3810530200129212  0.5874303229064974  1.0000
  Zn  Zn2       1.0  0.9887906717755801  0.37305670355231446  0.5915483682706559  1.0000
  C   C43       1.0  0.9061457986192358  0.37197075342807584  0.8266902041034792  1.0000
  C   C44       1.0  0.9060645594765632  0.3821405216134861  0.3522886588293481  1.0000
  C   C45       1.0  0.9061365295456136  0.6142638870461372  0.5842157559486032  1.0000
  C   C46       1.0  0.9060737719120364  0.13984583032571218  0.5947631754674652  1.0000
  O   O3        1.0  0.9688298878455004  0.38085547476006854  0.4022372236995504  1.0000
  O   O4        1.0  0.9688945923871621  0.36718580116954214  0.7798667669358963  1.0000
  O   O5        1.0  0.9688862617131769  0.5628406121993337  0.5840669128750402  1.0000
  O   O6        1.0  0.9688381620737089  0.18520067571297893  0.5980369789753401  1.0000
  O   O7        1.0  0.8433703334702866  0.5689090505824186  0.580941710789695  1.0000
  O   O8        1.0  0.8433786643488019  0.3732557999525006  0.7767414949551907  1.0000
  O   O9        1.0  0.8433139595855207  0.38692542769026006  0.39911039031698015  1.0000
  O   O10       1.0  0.8433222338258872  0.19127061939062995  0.594910242965718  1.0000
