data_image0
_chemical_formula_structural       NC9NC3OCH8C16H10C13F3H9Zn2C4O8
_chemical_formula_sum              "N2 C46 O9 H27 F3 Zn2"
_cell_length_a       17.728193572023454
_cell_length_b       10.29914801576943
_cell_length_c       10.2985328690268
_cell_angle_alpha    85.55501211268866
_cell_angle_beta     90.71056303588647
_cell_angle_gamma    88.46752555428026

_space_group_name_H-M_alt    "P 1"
_space_group_IT_number       1

loop_
  _space_group_symop_operation_xyz
  'x, y, z'

loop_
  _atom_site_type_symbol
  _atom_site_label
  _atom_site_symmetry_multiplicity
  _atom_site_fract_x
  _atom_site_fract_y
  _atom_site_fract_z
  _atom_site_occupancy
  N   N1        1.0  0.710715718178622  0.3865981037531476  0.5845208175641832  1.0000
  C   C1        1.0  0.6500959823046414  0.3491712181498663  0.5975419009150793  1.0000
  C   C2        1.0  0.5746327617950566  0.30264461038685275  0.6137477854844056  1.0000
  C   C3        1.0  0.562707100944295  0.17459982888024572  0.6232194338533728  1.0000
  C   C4        1.0  0.48598672418129624  0.12514913734967692  0.6381908610767242  1.0000
  C   C5        1.0  0.42785752802694393  0.20783038460248848  0.6556295828036574  1.0000
  C   C6        1.0  0.3498002176476045  0.16278559339095255  0.6773833987141742  1.0000
  C   C7        1.0  0.2884754280296288  0.24825002858144996  0.6418850946778061  1.0000
  C   C8        1.0  0.21419321562279872  0.20895040002409182  0.6620503117981085  1.0000
  C   C9        1.0  0.15189010408782852  0.296951213722668  0.624476485724742  1.0000
  N   N2        1.0  0.10181181022792521  0.3676953415678701  0.594270681422753  1.0000
  C   C10       1.0  0.20060436483252314  0.08406678971448733  0.718768053802721  1.0000
  C   C11       1.0  0.2610306376993415  0.9989203497409311  0.7556749116481987  1.0000
  C   C12       1.0  0.3352091172388862  0.03773035375457523  0.7356394823224279  1.0000
  O   O1        1.0  0.4412429935696737  0.34162568231924184  0.6542813655046293  1.0000
  C   C13       1.0  0.5089771032393267  0.3989958623481973  0.6056452833023263  1.0000
  H   H1        1.0  0.60961894532965  0.10513325400143625  0.6211454138778592  1.0000
  H   H2        1.0  0.47831161695594177  0.021491530929792058  0.6362489100186104  1.0000
  H   H3        1.0  0.2983849156545086  0.345069481445037  0.5974167868790687  1.0000
  H   H4        1.0  0.14338393654222814  0.052780947744470064  0.7349218316862576  1.0000
  H   H5        1.0  0.2503846216040306  0.9027599498209341  0.8006041342510699  1.0000
  H   H6        1.0  0.3807274215577822  0.9705043988122984  0.7680887683334614  1.0000
  H   H7        1.0  0.49950936012326336  0.4348973099199611  0.5020964577049276  1.0000
  H   H8        1.0  0.521880814116547  0.48340492970220206  0.6621990373503364  1.0000
  C   C14       1.0  0.9062136623685364  0.9957478282106201  0.589560064064333  1.0000
  C   C15       1.0  0.8889755265943441  0.00613839055163834  0.45564658972092587  1.0000
  C   C16       1.0  0.8802908721352973  0.8942741347402648  0.38758638205477913  1.0000
  C   C17       1.0  0.8890762414578801  0.7708815821003104  0.4552444806294229  1.0000
  C   C18       1.0  0.9063211087014327  0.7585352785556734  0.5892428818740949  1.0000
  C   C19       1.0  0.9147849879615142  0.8714893914408215  0.6555756341098449  1.0000
  C   C20       1.0  0.8620551896856116  0.9063116932465881  0.24592208084954414  1.0000
  C   C21       1.0  0.8977542324451528  0.8235747216967765  0.16158812370199183  1.0000
  C   C22       1.0  0.880565072609617  0.8350305079243847  0.02825848506965123  1.0000
  C   C23       1.0  0.8275003440209954  0.9291315470261324  0.9774540157599674  1.0000
  C   C24       1.0  0.7916636254125511  0.011855089898163973  0.06050050598812118  1.0000
  C   C25       1.0  0.808798981363296  0.000643176361636133  0.19384975142043137  1.0000
  C   C26       1.0  0.8098319360593184  0.9408002355080354  0.8401793968315934  1.0000
  C   C27       1.0  0.7950348348893249  0.9505726496617082  0.7252138877598404  1.0000
  C   C28       1.0  0.7777076041494876  0.9620160159132394  0.5905904495547625  1.0000
  C   C29       1.0  0.7629129863230897  0.971786938604318  0.47564351150788164  1.0000
  H   H9        1.0  0.9128053787102391  0.3192276527847211  0.641082050073968  1.0000
  H   H10       1.0  0.8832796581285786  0.10145290423749032  0.40359071904095134  1.0000
  H   H11       1.0  0.8814325552718589  0.6843418093216664  0.40363466933133263  1.0000
  H   H12       1.0  0.9280789973517896  0.8627591002232945  0.7588673349288169  1.0000
  H   H13       1.0  0.9384025692857422  0.527948356649318  0.8423244403217978  1.0000
  H   H14       1.0  0.9396773271185079  0.7511549126732954  0.19848556313824295  1.0000
  H   H15       1.0  0.9087948200208935  0.7707232523901508  0.9647826979067244  1.0000
  H   H16       1.0  0.7503406875235629  0.08480981847629221  0.02224803543663101  1.0000
  H   H17       1.0  0.7796894757183359  0.06460289670729247  0.2565007605572951  1.0000
  H   H18       1.0  0.749922120764873  0.980366631273391  0.37471040893960783  1.0000
  C   C30       1.0  0.9062456827639432  0.37702065299194754  0.20800348692069326  1.0000
  C   C31       1.0  0.9819105655266438  0.33246874213187105  0.21212004268258156  1.0000
  C   C32       1.0  0.020250545143109422  0.31001263086632136  0.09703502758104454  1.0000
  C   C33       1.0  0.9819551526164064  0.3327222254881188  0.9768203704939888  1.0000
  C   C34       1.0  0.9062890922884955  0.37726248744096824  0.9707994410608745  1.0000
  C   C35       1.0  0.868917572882893  0.3991220931182664  0.0869005273019785  1.0000
  C   C36       1.0  0.10024634623579254  0.2629228258987446  0.1023216403217515  1.0000
  C   C37       1.0  0.1523615460894654  0.31500902412848286  0.01205628892723265  1.0000
  C   C38       1.0  0.2276483339749964  0.27079333314123866  0.017053143984752106  1.0000
  C   C39       1.0  0.2521897358296965  0.1722028731273011  0.11117730591435993  1.0000
  C   C40       1.0  0.20051161978794685  0.12191474821473647  0.2030301176493836  1.0000
  C   C41       1.0  0.1252297489046854  0.16616325931327935  0.1981442922882266  1.0000
  C   C42       1.0  0.3340030587572207  0.12795866027522473  0.11951730221485257  1.0000
  F   F1        1.0  0.3727153890543018  0.20540885143100818  0.1999338026944366  1.0000
  F   F2        1.0  0.36614293596196057  0.13757936317290698  0.997456641168887  1.0000
  F   F3        1.0  0.3409737391201322  0.9994898153025555  0.16963090254729085  1.0000
  H   H19       1.0  0.7634111462252067  0.4620188332068831  0.4074899014277711  1.0000
  H   H20       1.0  0.011461217273707858  0.3168797390774587  0.30494167137451456  1.0000
  H   H21       1.0  0.010934709393077169  0.3139385739874976  0.887919430828612  1.0000
  H   H22       1.0  0.8106009046144805  0.4334538940723589  0.0829946882828605  1.0000
  H   H23       1.0  0.7631692936190662  0.46069078591861223  0.7521501625353992  1.0000
  H   H24       1.0  0.13517554111780083  0.39161032469670554  0.9388667865277416  1.0000
  H   H25       1.0  0.26677884196262247  0.3141321563678614  0.9475244004350909  1.0000
  H   H26       1.0  0.21830135597219602  0.04817604736378378  0.278676336203461  1.0000
  H   H27       1.0  0.08637118072031424  0.12376539978177292  0.26869909209358256  1.0000
  Zn  Zn1       1.0  0.8235776136044688  0.38113970666076247  0.5873419193948932  1.0000
  Zn  Zn2       1.0  0.9889499395093769  0.3731431374837382  0.5914602224806194  1.0000
  C   C43       1.0  0.9062784765103499  0.37204275716334956  0.8266167743054034  1.0000
  C   C44       1.0  0.9062508827022586  0.3822416384469367  0.35218553933653207  1.0000
  C   C45       1.0  0.9062966264513331  0.6143507709656877  0.5841271512582453  1.0000
  C   C46       1.0  0.9062326761153825  0.13993206697068405  0.5946752308712178  1.0000
  O   O2        1.0  0.9690105628866547  0.38095352634744795  0.4021372301612307  1.0000
  O   O3        1.0  0.9690325650733251  0.3672606783678911  0.7797904067646588  1.0000
  O   O4        1.0  0.9690463754500737  0.5629275052530929  0.5839782988695663  1.0000
  O   O5        1.0  0.9689966960753  0.1852867114510106  0.5979492392650749  1.0000
  O   O6        1.0  0.8435308006050868  0.5689961354237381  0.5808529011982313  1.0000
  O   O7        1.0  0.843516990440772  0.37333086894269996  0.7766649391935891  1.0000
  O   O8        1.0  0.8434949882090454  0.38702367116530967  0.3990102010905785  1.0000
  O   O9        1.0  0.843481121398838  0.19135684701035638  0.5948223075734644  1.0000
