data_image0
_chemical_formula_structural       NC9NC3OCH8C12NH11C12OCH12Zn2C4O8
_chemical_formula_sum              "N3 C42 O10 H31 Zn2"
_cell_length_a       17.728193572023454
_cell_length_b       10.299770795358612
_cell_length_c       10.299794127170987
_cell_angle_alpha    85.57261220462476
_cell_angle_beta     90.69834653510783
_cell_angle_gamma    88.47103896228896

_space_group_name_H-M_alt    "P 1"
_space_group_IT_number       1

loop_
  _space_group_symop_operation_xyz
  'x, y, z'

loop_
  _atom_site_type_symbol
  _atom_site_label
  _atom_site_symmetry_multiplicity
  _atom_site_fract_x
  _atom_site_fract_y
  _atom_site_fract_z
  _atom_site_occupancy
  N   N1        1.0  0.7109439043099721  0.3864992653371371  0.5851553030197405  1.0000
  C   C1        1.0  0.6503211224211461  0.34907545636281156  0.5981623788102397  1.0000
  C   C2        1.0  0.5748541129676288  0.3025526729522403  0.614350847769414  1.0000
  C   C3        1.0  0.5629223668417641  0.17451898653690967  0.6237789165390104  1.0000
  C   C4        1.0  0.4861982414966188  0.12507239627874633  0.6387321125796495  1.0000
  C   C5        1.0  0.4280700631339349  0.20774609686664558  0.6561960580864881  1.0000
  C   C6        1.0  0.35000833490552075  0.16270490977795182  0.677932262213975  1.0000
  C   C7        1.0  0.2886912134364437  0.24816241304249087  0.6424666582557625  1.0000
  C   C8        1.0  0.21440500005200733  0.20886590967638674  0.6626163630162194  1.0000
  C   C9        1.0  0.1521099105695578  0.2968596023149659  0.625076334024447  1.0000
  N   N2        1.0  0.1020380656735859  0.36759800551932664  0.5948976993124491  1.0000
  C   C10       1.0  0.2008043452348716  0.0839923498747277  0.7192857224592888  1.0000
  C   C11       1.0  0.26122278804669613  0.9988527910281569  0.7561598111387797  1.0000
  C   C12       1.0  0.3354052337285241  0.03765971075778696  0.7361397159452594  1.0000
  O   O1        1.0  0.44146083052654433  0.3415296624500006  0.654892319061811  1.0000
  C   C13       1.0  0.509203154017821  0.3988955918993544  0.6062812591587419  1.0000
  H   H1        1.0  0.6098318013998937  0.10505854801295178  0.6216821468968992  1.0000
  H   H2        1.0  0.4785193958331264  0.021423927777720175  0.6367560718573935  1.0000
  H   H3        1.0  0.2986099138075891  0.3449740820293983  0.5980359218212992  1.0000
  H   H4        1.0  0.143580719397336  0.05270899419025321  0.735427138736779  1.0000
  H   H5        1.0  0.2505675275266376  0.902700109605236  0.8010516235781155  1.0000
  H   H6        1.0  0.3809169467981263  0.9704391349672964  0.7685627197587261  1.0000
  H   H7        1.0  0.4997495884857953  0.4347955662485443  0.5027571448527646  1.0000
  H   H8        1.0  0.5221031140004525  0.48329632590490434  0.6628559660857405  1.0000
  C   C14       1.0  0.9064262243761111  0.9956832444892206  0.5900644808141426  1.0000
  C   C15       1.0  0.884531982582717  0.005879095519907951  0.45811481112003904  1.0000
  C   C16       1.0  0.8735072177189216  0.8939059005431857  0.3912215039839084  1.0000
  C   C17       1.0  0.8846701126269491  0.7705907868037515  0.4580497023784811  1.0000
  C   C18       1.0  0.9065629887388928  0.7584037101192833  0.5899998885742659  1.0000
  C   C19       1.0  0.9173188111725759  0.8715104009401836  0.6552682583916014  1.0000
  C   C20       1.0  0.8503447110412731  0.9057459083620243  0.2516264201777041  1.0000
  C   C21       1.0  0.795398369730107  0.9995664030695712  0.20507262099581003  1.0000
  C   C22       1.0  0.7736301761681975  0.010579429004379692  0.07368547334177022  1.0000
  C   C23       1.0  0.8063963585950786  0.9282107198344817  0.9867618207993263  1.0000
  C   C24       1.0  0.8611616721211739  0.8345968012169456  0.0324205932171151  1.0000
  C   C25       1.0  0.8829903200333314  0.8233248192388385  0.1637792752099847  1.0000
  N   N3        1.0  0.7840981639192478  0.9396085624644365  0.8523771043102433  1.0000
  H   H9        1.0  0.9147368488195351  0.31925196755065666  0.6403597543164155  1.0000
  H   H10       1.0  0.8770018937908919  0.10113365392237217  0.4065773868268785  1.0000
  H   H11       1.0  0.875245673878646  0.6840029191696042  0.40740514798482996  1.0000
  H   H12       1.0  0.9342086533462786  0.8628767553081553  0.757061570099774  1.0000
  H   H13       1.0  0.9149379998250105  0.42630583826005614  0.6402651460448128  1.0000
  H   H14       1.0  0.7685494638681019  0.0632939927121785  0.2706039379709755  1.0000
  H   H15       1.0  0.7310863295242378  0.08310729954415197  0.0397156455381702  1.0000
  H   H16       1.0  0.887077349821765  0.7705685619922603  0.9661767880142746  1.0000
  H   H17       1.0  0.926112782116444  0.7512788450845429  0.19632404127870218  1.0000
  H   H18       1.0  0.8082025002720753  0.8786294143085935  0.7868410272351314  1.0000
  H   H19       1.0  0.7433207118082206  0.009110753131271077  0.8174281583667677  1.0000
  C   C26       1.0  0.906520042538911  0.37692876738016534  0.20868141995473888  1.0000
  C   C27       1.0  0.8325638604375104  0.33138049065960673  0.20965014885199262  1.0000
  C   C28       1.0  0.795068944428993  0.30840440936831337  0.09299361796595873  1.0000
  C   C29       1.0  0.832512596725829  0.331609434243497  0.9743439600273973  1.0000
  C   C30       1.0  0.90646920145586  0.37715819796522343  0.9713829797779407  1.0000
  C   C31       1.0  0.9430595640110673  0.39955989325927965  0.08906112551684342  1.0000
  C   C32       1.0  0.7168296524205853  0.26020971336699317  0.09507322956898223  1.0000
  C   C33       1.0  0.6628148065982055  0.311487135806527  0.002575031026281316  1.0000
  C   C34       1.0  0.5892820099786864  0.26611104114888096  0.004798908058855078  1.0000
  C   C35       1.0  0.568695262670432  0.16917238906543774  0.09898150605622313  1.0000
  C   C36       1.0  0.6219653664264513  0.11652636708254227  0.19232386008482805  1.0000
  C   C37       1.0  0.6956008590850808  0.16253704252134038  0.1896511085673278  1.0000
  O   O2        1.0  0.604185000191268  0.018813119088444186  0.2887113798135976  1.0000
  C   C38       1.0  0.5318388137449502  0.9630361826222698  0.3029516808332171  1.0000
  H   H20       1.0  0.9347105467264766  0.3942258188837846  0.5357701060326323  1.0000
  H   H21       1.0  0.8035688427548306  0.3153530191624907  0.30120644230116556  1.0000
  H   H22       1.0  0.8042204006012812  0.31238239202962537  0.8843094914008987  1.0000
  H   H23       1.0  0.00011396727817003516  0.4346976184524869  0.0875454085219931  1.0000
  H   H24       1.0  0.9346346562156614  0.3945762545561684  0.6427969617659506  1.0000
  H   H25       1.0  0.677180282758452  0.38785871926444915  0.9296073116738843  1.0000
  H   H26       1.0  0.5480292792762599  0.3065000178380646  0.9334299807979192  1.0000
  H   H27       1.0  0.5113584383553929  0.13590933994568433  0.09838487608915236  1.0000
  H   H28       1.0  0.7365206258961315  0.12041414372865211  0.2608381311616088  1.0000
  H   H29       1.0  0.5162761055538845  0.9153327295189135  0.21370778994312278  1.0000
  H   H30       1.0  0.5337645776818041  0.8884675275771902  0.3866781791209044  1.0000
  H   H31       1.0  0.4888712495866595  0.039370865695634416  0.32215177779562754  1.0000
  Zn  Zn1       1.0  0.8238052415212316  0.3810413019784742  0.5879742477947638  1.0000
  Zn  Zn2       1.0  0.9891767514471755  0.3730453684600443  0.5920893925972461  1.0000
  C   C39       1.0  0.9064761785577442  0.3719412678797034  0.8272164634454962  1.0000
  C   C40       1.0  0.9065076205477406  0.3821469538855158  0.35284734920549576  1.0000
  C   C41       1.0  0.9065336026182654  0.6142319306974076  0.5848371143118893  1.0000
  C   C42       1.0  0.9064501397730758  0.13985473352962763  0.5952267663022677  1.0000
  O   O3        1.0  0.9692610767740933  0.38085814415982355  0.402792428519813  1.0000
  O   O4        1.0  0.9692358717781632  0.36716036925276163  0.7803943100729338  1.0000
  O   O5        1.0  0.9692813963403855  0.5628131849732292  0.5846712496067232  1.0000
  O   O6        1.0  0.9692154957899368  0.18520534042867087  0.5985153902109779  1.0000
  O   O7        1.0  0.843766440745291  0.568881332739879  0.5815482487699049  1.0000
  O   O8        1.0  0.8437209164640327  0.3732300772876267  0.7772712398618224  1.0000
  O   O9        1.0  0.8437461216061671  0.38692780646710734  0.39966779698730615  1.0000
  O   O10       1.0  0.8437005406107655  0.1912749934766711  0.5953908560423891  1.0000
