data_image0
_chemical_formula_structural       NC9NC3OCH8C16H10C13NH9Zn2C4O8
_chemical_formula_sum              "N3 C46 O9 H27 Zn2"
_cell_length_a       17.728193572023454
_cell_length_b       10.29914801576943
_cell_length_c       10.298528502251457
_cell_angle_alpha    85.51780360307934
_cell_angle_beta     90.70114426090622
_cell_angle_gamma    88.46752555428026

_space_group_name_H-M_alt    "P 1"
_space_group_IT_number       1

loop_
  _space_group_symop_operation_xyz
  'x, y, z'

loop_
  _atom_site_type_symbol
  _atom_site_label
  _atom_site_symmetry_multiplicity
  _atom_site_fract_x
  _atom_site_fract_y
  _atom_site_fract_z
  _atom_site_occupancy
  N   N1        1.0  0.7108361561527499  0.38751431728238384  0.5844514622869941  1.0000
  C   C1        1.0  0.6502153123621575  0.350079003372364  0.5974731836415117  1.0000
  C   C2        1.0  0.5747507129528118  0.30354190583961005  0.6136798622625139  1.0000
  C   C3        1.0  0.5628242461939481  0.17549099350996666  0.6231519747208198  1.0000
  C   C4        1.0  0.48610259556667307  0.12603061125109583  0.6381241355102298  1.0000
  C   C5        1.0  0.4279719156149309  0.20870057074144732  0.6555637116950701  1.0000
  C   C6        1.0  0.349912754282536  0.16364169868669087  0.6773185934933446  1.0000
  C   C7        1.0  0.288590985086108  0.24912911127369575  0.6418185501203995  1.0000
  C   C8        1.0  0.2143070568943141  0.20981643014377038  0.6619847552907141  1.0000
  C   C9        1.0  0.1520071423795111  0.2978415646859316  0.6244090881848865  1.0000
  N   N2        1.0  0.10193141862160741  0.36860524419032226  0.5942018038668322  1.0000
  C   C10       1.0  0.20071338019771023  0.08489610748740972  0.7187052763363515  1.0000
  C   C11       1.0  0.2611365127942614  0.9997257783864828  0.7556139425343558  1.0000
  C   C12       1.0  0.3353166970755987  0.03854875096345145  0.7355775315178819  1.0000
  O   O1        1.0  0.4413574958725658  0.3424967411343549  0.6542154283364452  1.0000
  C   C13       1.0  0.5090957438095155  0.3998984024009544  0.6055769630761609  1.0000
  H   H1        1.0  0.6097362670501176  0.10602576110597783  0.6210778531230203  1.0000
  H   H2        1.0  0.4784276535748691  0.022374261820260477  0.636182089300908  1.0000
  H   H3        1.0  0.2985042563575229  0.3459773476515393  0.5973480634751971  1.0000
  H   H4        1.0  0.1434915774412223  0.05359980947534715  0.7348598457184534  1.0000
  H   H5        1.0  0.2504866738348516  0.9035362966105903  0.8005453665674751  1.0000
  H   H6        1.0  0.3808322404027983  0.9713017921977161  0.7680284074705077  1.0000
  H   H7        1.0  0.49963681128631227  0.43586687521486  0.5020230638206038  1.0000
  H   H8        1.0  0.5219946427335461  0.48427086355457827  0.662133488130157  1.0000
  C   C14       1.0  0.9063336715715123  0.9966607799286775  0.5894909556988202  1.0000
  C   C15       1.0  0.8891069300076753  0.007138021988099652  0.45557091989817144  1.0000
  C   C16       1.0  0.8804280665440963  0.8953178202919971  0.38750737743584596  1.0000
  C   C17       1.0  0.8892076790852113  0.7718814738145595  0.4551687911042328  1.0000
  C   C18       1.0  0.9064411448922874  0.7594484355799038  0.5891737579673726  1.0000
  C   C19       1.0  0.914899380139799  0.8723596124997729  0.6555097603578934  1.0000
  C   C20       1.0  0.8622044377944261  0.9074470754837856  0.24583613500039037  1.0000
  C   C21       1.0  0.8979106562235748  0.8247646917466886  0.16149804567975679  1.0000
  C   C22       1.0  0.8807328409219375  0.8363067797866293  0.02816187419680305  1.0000
  C   C23       1.0  0.8276724351007831  0.9304407036829435  0.9773549155830761  1.0000
  C   C24       1.0  0.7918286503686082  0.013110492095815829  0.06040547490134518  1.0000
  C   C25       1.0  0.8089526601171827  0.0018122640558357883  0.19376125414495737  1.0000
  C   C26       1.0  0.8100157073370264  0.9421982474900561  0.8400735705089812  1.0000
  C   C27       1.0  0.795228388163956  0.9520450766942038  0.7251024283874119  1.0000
  C   C28       1.0  0.7779126120427161  0.9635755822106328  0.5904723939384691  1.0000
  C   C29       1.0  0.7631277746331002  0.9734209079315048  0.4755198237517102  1.0000
  H   H9        1.0  0.9129210040948623  0.3201072552729056  0.6410154661691931  1.0000
  H   H10       1.0  0.883415490786567  0.10248623047751049  0.40351249859831806  1.0000
  H   H11       1.0  0.8815683841902772  0.6853751071134754  0.40355645104216453  1.0000
  H   H12       1.0  0.9281846008150265  0.8635624624722245  0.7588065222364913  1.0000
  H   H13       1.0  0.9385010716874979  0.5286976986554774  0.8422677168388013  1.0000
  H   H14       1.0  0.9398306114280408  0.7523209996921993  0.1983972930070539  1.0000
  H   H15       1.0  0.9089679892570192  0.772040610956954  0.9646829768639296  1.0000
  H   H16       1.0  0.7505089672431766  0.08608998079156449  0.0221511300653503  1.0000
  H   H17       1.0  0.7798378237257793  0.06573143156051575  0.2564153330395109  1.0000
  H   H18       1.0  0.7501454971053869  0.9820659327335183  0.3745817756897871  1.0000
  C   C30       1.0  0.9063981572279675  0.378180579234594  0.20791568314623388  1.0000
  C   C31       1.0  0.8279473489237031  0.4018372199356699  0.20346141088487912  1.0000
  C   C32       1.0  0.7882034570585212  0.41368361135991627  0.08405815699073504  1.0000
  C   C33       1.0  0.8279247844827873  0.4015734291602886  0.9682012558037081  1.0000
  C   C34       1.0  0.9063766684874099  0.3779286170971301  0.9707489729582233  1.0000
  C   C35       1.0  0.9451110024750353  0.3663808386722096  0.0910604437370146  1.0000
  C   C36       1.0  0.7052651727390222  0.4386877152874904  0.08035676942233638  1.0000
  C   C37       1.0  0.6719586476693269  0.5282365184813451  0.16040557775779574  1.0000
  C   C38       1.0  0.5938889190947366  0.5517258318962885  0.15680200484356122  1.0000
  C   C39       1.0  0.5480869270324971  0.4860760393242962  0.07333952930352172  1.0000
  C   C40       1.0  0.5806486710769425  0.3967995998352176  0.9933760610743652  1.0000
  C   C41       1.0  0.6587103309636736  0.3732163039467493  0.9967428621742518  1.0000
  C   C42       1.0  0.4677140670431302  0.5103090106271326  0.06975029042227843  1.0000
  N   N3        1.0  0.40309970728963135  0.5297908084842058  0.06686481936489463  1.0000
  H   H19       1.0  0.054576791993610874  0.3326734179150397  0.42371862234276003  1.0000
  H   H20       1.0  0.7974713208012816  0.40931903682985804  0.29321472046078356  1.0000
  H   H21       1.0  0.7977330890645682  0.4123811702847191  0.875740665914543  1.0000
  H   H22       1.0  0.005574557544335779  0.3481529215632537  0.09375855644047149  1.0000
  H   H23       1.0  0.054694976571701526  0.3340576238130126  0.7681767649236422  1.0000
  H   H24       1.0  0.7063886705320559  0.5813447615986667  0.22454399976355943  1.0000
  H   H25       1.0  0.5692969925021183  0.6213109047593459  0.21886726632866305  1.0000
  H   H26       1.0  0.5456972683440655  0.3451668486505959  0.9286523036893364  1.0000
  H   H27       1.0  0.6825611561860295  0.3025367794403948  0.9352063784717646  1.0000
  Zn  Zn1       1.0  0.8236978115413048  0.3820540941428925  0.5872727023453106  1.0000
  Zn  Zn2       1.0  0.989069787034786  0.37405485926435067  0.5913912072185696  1.0000
  C   C43       1.0  0.9063783154202623  0.37280226645158243  0.8265592811823133  1.0000
  C   C44       1.0  0.9063910892399765  0.3833082383102655  0.3521048001564058  1.0000
  C   C45       1.0  0.9064170979210949  0.6152672393078518  0.5840577766922981  1.0000
  C   C46       1.0  0.9063522500874236  0.14084170773575022  0.5946063731373046  1.0000
  O   O2        1.0  0.9691465192167242  0.38198779340397193  0.40205893850093144  1.0000
  O   O3        1.0  0.9691363882684975  0.36805049749889585  0.7797306192555116  1.0000
  O   O4        1.0  0.9691668595851436  0.5638440699446594  0.5839089170101888  1.0000
  O   O5        1.0  0.9691159914738778  0.18619423301091875  0.5978805419501652  1.0000
  O   O6        1.0  0.8436515506688744  0.5699147231274873  0.5807833662014392  1.0000
  O   O7        1.0  0.8436210795706096  0.3741227111311318  0.7766049985436028  1.0000
  O   O8        1.0  0.8436312106066425  0.3880599622899912  0.39893175621293  1.0000
  O   O9        1.0  0.8436006828566579  0.19226639257539002  0.5947534570459772  1.0000
