data_image0
_chemical_formula_structural       NC9NC3OCH8C12NH11C12NCOCH13Zn2C4O8
_chemical_formula_sum              "N4 C43 O10 H32 Zn2"
_cell_length_a       17.728193572023454
_cell_length_b       10.299770795358612
_cell_length_c       10.299158637457994
_cell_angle_alpha    85.57628442395506
_cell_angle_beta     90.68674526026635
_cell_angle_gamma    88.47103896228896

_space_group_name_H-M_alt    "P 1"
_space_group_IT_number       1

loop_
  _space_group_symop_operation_xyz
  'x, y, z'

loop_
  _atom_site_type_symbol
  _atom_site_label
  _atom_site_symmetry_multiplicity
  _atom_site_fract_x
  _atom_site_fract_y
  _atom_site_fract_z
  _atom_site_occupancy
  N   N1        1.0  0.7111119434790316  0.3864002786565539  0.5850791375252253  1.0000
  C   C1        1.0  0.6504876167576089  0.3489773796953617  0.5980869135271056  1.0000
  C   C2        1.0  0.57501868462178  0.30245572887751226  0.6142762539619595  1.0000
  C   C3        1.0  0.5630858187370857  0.17442270207749777  0.6237048302738479  1.0000
  C   C4        1.0  0.48635991742130363  0.12497715798874354  0.63865883129158  1.0000
  C   C5        1.0  0.42822966488970365  0.20765208040544048  0.6561237169369714  1.0000
  C   C6        1.0  0.3501653550820618  0.16261241404527604  0.6778610911919924  1.0000
  C   C7        1.0  0.2888524458142476  0.2480674360322459  0.6423935780099124  1.0000
  C   C8        1.0  0.21456383927694292  0.20877234239852638  0.6625443674917033  1.0000
  C   C9        1.0  0.1522732083723796  0.2967634086266826  0.6250023176033066  1.0000
  N   N2        1.0  0.1022049477515661  0.36749970044533375  0.5948220582814547  1.0000
  C   C10       1.0  0.20095645391751363  0.08390274735129877  0.7192167776228062  1.0000
  C   C11       1.0  0.2613705172442719  0.9987657683240152  0.7560928513492815  1.0000
  C   C12       1.0  0.3355553406854172  0.03757128738912541  0.7360716784117132  1.0000
  O   O1        1.0  0.4416205871256134  0.34143555477539356  0.654819907727964  1.0000
  C   C13       1.0  0.5093686840859717  0.39879808325256283  0.6062062309402116  1.0000
  H   H1        1.0  0.609995502325677  0.10496211685739198  0.6216079477560996  1.0000
  H   H2        1.0  0.4786813064494644  0.021328551238118054  0.6366826841929007  1.0000
  H   H3        1.0  0.2987764231631752  0.34487599651464707  0.5979604497305919  1.0000
  H   H4        1.0  0.14373091098604923  0.05262052096760206  0.7353590628429838  1.0000
  H   H5        1.0  0.25070992498506484  0.9026162276638285  0.8009870804546313  1.0000
  H   H6        1.0  0.3810632029192133  0.970352980006983  0.7684964276564099  1.0000
  H   H7        1.0  0.49992741397137447  0.43469081475138416  0.5026765436088863  1.0000
  H   H8        1.0  0.5222619247680594  0.4832027753903769  0.6627839834598039  1.0000
  C   C14       1.0  0.9065936804888401  0.9955846012691  0.5899885795959505  1.0000
  C   C15       1.0  0.8847151101771996  0.005771220714274827  0.4580318066403617  1.0000
  C   C16       1.0  0.8736982901399784  0.8937933456857838  0.39113489842926596  1.0000
  C   C17       1.0  0.8848532479543079  0.7704829074429198  0.45796669439379767  1.0000
  C   C18       1.0  0.9067304525231539  0.7583050623801004  0.5899239838788726  1.0000
  C   C19       1.0  0.9174785231218451  0.8714163195673934  0.6551958672957385  1.0000
  C   C20       1.0  0.8505523629794582  0.9056235870235371  0.25153229978513436  1.0000
  C   C21       1.0  0.7956115507993323  0.9994408246908876  0.2049759944673064  1.0000
  C   C22       1.0  0.7738589619092033  0.01044465839587394  0.07358177383409403  1.0000
  C   C23       1.0  0.8066354681393798  0.9280698677925523  0.9866534419208359  1.0000
  C   C24       1.0  0.8613953588355392  0.8344591435965174  0.03231467229248275  1.0000
  C   C25       1.0  0.8832084054567437  0.8231963518566918  0.16368042573212938  1.0000
  N   N3        1.0  0.7843532341524793  0.9394583084739858  0.8522614910841204  1.0000
  H   H9        1.0  0.9148983314314375  0.3191568431352383  0.6402865606493673  1.0000
  H   H10       1.0  0.8771911424147514  0.10102217340752784  0.40649160792721317  1.0000
  H   H11       1.0  0.8754348241904452  0.6838914965673556  0.4073194136461247  1.0000
  H   H12       1.0  0.9343562754431761  0.8627897956937128  0.7569946588547678  1.0000
  H   H13       1.0  0.9150994936734078  0.42621070722556603  0.6401919472847069  1.0000
  H   H14       1.0  0.7687548618724612  0.06317299909644114  0.2705108391972666  1.0000
  H   H15       1.0  0.731319149815219  0.08297015230695903  0.03961011732891451  1.0000
  H   H16       1.0  0.8873189042222486  0.7704262697611218  0.966067300979387  1.0000
  H   H17       1.0  0.9263270022425137  0.7511526546295884  0.19622694378691752  1.0000
  H   H18       1.0  0.8084653541355232  0.8784745752221662  0.7867218859979612  1.0000
  H   H19       1.0  0.7435799328799493  0.008958054010159477  0.8173106637300855  1.0000
  C   C26       1.0  0.9067327949960211  0.37680344148363076  0.20858498769911749  1.0000
  C   C27       1.0  0.908510673428514  0.5134206391589362  0.19730355452265957  1.0000
  C   C28       1.0  0.9093528791474149  0.5828301668692308  0.0744245921763782  1.0000
  C   C29       1.0  0.9083662760832161  0.5137874869096635  0.9619884466437303  1.0000
  C   C30       1.0  0.9065913449479172  0.3770862379971449  0.9713276545676415  1.0000
  C   C31       1.0  0.9057888324792518  0.30943459909450555  0.09501409492102408  1.0000
  C   C32       1.0  0.9112345607187998  0.7273543540893159  0.06346378129365782  1.0000
  C   C33       1.0  0.957564478634839  0.7929491751653159  0.14717929255841344  1.0000
  C   C34       1.0  0.9593413903540864  0.9289537603344096  0.13673388739267023  1.0000
  C   C35       1.0  0.9153021928551146  0.002067361077766172  0.041480900634137896  1.0000
  C   C36       1.0  0.8680736496343189  0.9368763560148008  0.9595260500490492  1.0000
  C   C37       1.0  0.8663277248886062  0.8008981827406239  0.9697112378195722  1.0000
  N   N4        1.0  0.9150391208925468  0.1421259031430604  0.030226491070168393  1.0000
  C   C38       1.0  0.9797084968001417  0.21798839798532788  0.05506206545202641  1.0000
  O   O2        1.0  0.044763703340602756  0.165431822520822  0.06520325910849034  1.0000
  C   C39       1.0  0.9708822612224084  0.36222994837166267  0.059431932211950755  1.0000
  H   H20       1.0  0.9060725891065519  0.32425161914789213  0.5404006719434484  1.0000
  H   H21       1.0  0.9081902603284859  0.5662533163428995  0.2842417215231774  1.0000
  H   H22       1.0  0.9100118161530714  0.5667215093925089  0.8670531085623314  1.0000
  H   H23       1.0  0.9044200966160509  0.2040584378372825  0.103000895118601  1.0000
  H   H24       1.0  0.903699383036005  0.11903226429506897  0.7816741189240362  1.0000
  H   H25       1.0  0.9928745074258021  0.7390157395299739  0.22025613061983695  1.0000
  H   H26       1.0  0.9941728171657057  0.976609970731678  0.20462872976318902  1.0000
  H   H27       1.0  0.8327852645742725  0.9916837520745478  0.8870189637875656  1.0000
  H   H28       1.0  0.8290240045101106  0.7533146722993893  0.9054390516330897  1.0000
  H   H29       1.0  0.8661296137968785  0.19194452813594864  0.9940570939163167  1.0000
  H   H30       1.0  0.9178230607855138  0.3865088278541231  0.10952598684133807  1.0000
  H   H31       1.0  0.9688617094192172  0.4089948893105442  0.9586586429346902  1.0000
  H   H32       1.0  0.01903412163269458  0.4006704850482401  0.1132826215148186  1.0000
  Zn  Zn1       1.0  0.8239729458880769  0.38094251251952715  0.5878982340528214  1.0000
  Zn  Zn2       1.0  0.9893439670639023  0.37294686690868506  0.5920136003863592  1.0000
  C   C40       1.0  0.9066154684539357  0.37185921650715725  0.827153328856794  1.0000
  C   C41       1.0  0.906703250614662  0.38203171425980686  0.3527586778506415  1.0000
  C   C42       1.0  0.9067016795781625  0.6141329217554099  0.5847609316882854  1.0000
  C   C43       1.0  0.9066169827682199  0.13975645147812532  0.5951511429859739  1.0000
  O   O3        1.0  0.9694507749322729  0.3807463988382058  0.4027064458640599  1.0000
  O   O4        1.0  0.969380722677455  0.36707504206517383  0.7803286549019564  1.0000
  O   O5        1.0  0.9694494929998068  0.5627141644268507  0.5845950580541059  1.0000
  O   O6        1.0  0.9693819481997181  0.18510728845893332  0.5984399439315466  1.0000
  O   O7        1.0  0.8439349083192491  0.5687820936992114  0.5814718890964305  1.0000
  O   O8        1.0  0.843866138286101  0.3731445316008961  0.7772054165662532  1.0000
  O   O9        1.0  0.8439361908725592  0.38681584253711176  0.39958164612291025  1.0000
  O   O10       1.0  0.8438673641171954  0.19117672290536802  0.5953152415595566  1.0000
