data_image0
_chemical_formula_structural       NC9NC3OCH8C12OCH12C13NH9Zn2C4O8
_chemical_formula_sum              "N3 C43 O10 H29 Zn2"
_cell_length_a       17.728193572023454
_cell_length_b       10.29979075500242
_cell_length_c       10.298528502251457
_cell_angle_alpha    85.53676387981383
_cell_angle_beta     90.70114426090622
_cell_angle_gamma    88.43583692371088

_space_group_name_H-M_alt    "P 1"
_space_group_IT_number       1

loop_
  _space_group_symop_operation_xyz
  'x, y, z'

loop_
  _atom_site_type_symbol
  _atom_site_label
  _atom_site_symmetry_multiplicity
  _atom_site_fract_x
  _atom_site_fract_y
  _atom_site_fract_z
  _atom_site_occupancy
  N   N1        1.0  0.7103939292734807  0.38741324159612867  0.5849010589367714  1.0000
  C   C1        1.0  0.6497850168207049  0.34998065472106354  0.5979106501161207  1.0000
  C   C2        1.0  0.5743352496586059  0.3034469472571626  0.614102249308478  1.0000
  C   C3        1.0  0.5624495951311129  0.1754053629997976  0.6235328693940805  1.0000
  C   C4        1.0  0.48574370845684456  0.12594858376110207  0.6384890035220836  1.0000
  C   C5        1.0  0.42758668003594474  0.20861252102682926  0.6559553672768685  1.0000
  C   C6        1.0  0.3495418798125661  0.16355693135724025  0.677695648636311  1.0000
  C   C7        1.0  0.2881928641717489  0.2490381164777713  0.6422233057734206  1.0000
  C   C8        1.0  0.2139214656699735  0.20972829914260083  0.6623767724447451  1.0000
  C   C9        1.0  0.1515934958911195  0.2977470213538971  0.6248296281477228  1.0000
  N   N2        1.0  0.1014952184191653  0.36850554596555685  0.5946452734044014  1.0000
  C   C10       1.0  0.20036760342699894  0.08481707650573678  0.7190568155235206  1.0000
  C   C11       1.0  0.2608178814074757  0.9996529517728336  0.7559378839561197  1.0000
  C   C12       1.0  0.3349856920781101  0.03847309622864592  0.7359140527582377  1.0000
  O   O1        1.0  0.4409296169405316  0.34239894482500133  0.6546504379285139  1.0000
  C   C13       1.0  0.5086495698896671  0.399796424576331  0.6060305725444803  1.0000
  H   H1        1.0  0.6093837558618488  0.10594519090109578  0.6214362389577228  1.0000
  H   H2        1.0  0.47810180369093047  0.02229978534182986  0.6365133695170531  1.0000
  H   H3        1.0  0.2980752680908038  0.34587929779187054  0.597784200889163  1.0000
  H   H4        1.0  0.1431557753886313  0.05352305832225679  0.7352012439574815  1.0000
  H   H5        1.0  0.2501986998429586  0.903470477072659  0.8008381396847313  1.0000
  H   H6        1.0  0.3805226682743942  0.9712310361745282  0.7683431386601289  1.0000
  H   H7        1.0  0.4991791735384611  0.4357622772096532  0.5024883281631638  1.0000
  H   H8        1.0  0.5215215777252762  0.4841627394838901  0.6626144368305089  1.0000
  C   C14       1.0  0.9060160170573153  0.9965881765897133  0.5898139039682828  1.0000
  C   C15       1.0  0.8841673951753731  0.9864325946526257  0.720724332290734  1.0000
  C   C16       1.0  0.8730366469179449  0.8641533054476412  0.787022994375947  1.0000
  C   C17       1.0  0.8840318180718556  0.7511568787745038  0.7206551609588328  1.0000
  C   C18       1.0  0.9058804064800802  0.7593202478860658  0.5897437991690522  1.0000
  C   C19       1.0  0.9167519228254019  0.8824826160614275  0.5250569008290931  1.0000
  C   C20       1.0  0.8499266402118537  0.8544631557721057  0.9255202482816853  1.0000
  C   C21       1.0  0.794862268698199  0.7662433105411913  0.9692196161506761  1.0000
  C   C22       1.0  0.7731797056284446  0.7573936341302722  0.09943507082607561  1.0000
  C   C23       1.0  0.8060732659506777  0.8361182787728563  0.1876138851871635  1.0000
  C   C24       1.0  0.8613384895234262  0.9249368469651308  0.14579146525397113  1.0000
  C   C25       1.0  0.8827871171280367  0.9334368287509173  0.015043415453878772  1.0000
  O   O2        1.0  0.8962189366651261  0.005921269924463957  0.2305395986187967  1.0000
  C   C26       1.0  0.8800360725120366  0.007633493439572758  0.36548971618447623  1.0000
  H   H9        1.0  0.9143743035895378  0.32790776255064236  0.5399535288044495  1.0000
  H   H10       1.0  0.8747550416624874  0.07389616973162738  0.7709249985257891  1.0000
  H   H11       1.0  0.8765072438576543  0.6566023934374455  0.7718420934301717  1.0000
  H   H12       1.0  0.9336077922966183  0.8895487939033802  0.4240650507904502  1.0000
  H   H13       1.0  0.9141681664243607  0.434981221020353  0.5398440269661606  1.0000
  H   H14       1.0  0.7678720219443681  0.70534252312068  0.9023292129372282  1.0000
  H   H15       1.0  0.7305578885853242  0.6894722293537041  0.13205623655135013  1.0000
  H   H16       1.0  0.7881863380069013  0.827197947303361  0.2878476234230709  1.0000
  H   H17       1.0  0.9260177892615127  0.0009020538784645371  0.9839504691897494  1.0000
  H   H18       1.0  0.8930707081782706  0.9104563995772401  0.41644348798725506  1.0000
  H   H19       1.0  0.91564628649903  0.08053602099530499  0.4085966192121605  1.0000
  H   H20       1.0  0.8197919068310688  0.035451539827162204  0.3784260652369734  1.0000
  C   C27       1.0  0.9059589051863611  0.3780801834793255  0.20836225538227815  1.0000
  C   C28       1.0  0.8275005570662832  0.4017351008748009  0.20391564858878297  1.0000
  C   C29       1.0  0.7877528895336037  0.413580629329831  0.08451623328414404  1.0000
  C   C30       1.0  0.8274780767004428  0.40147132931567775  0.968655408031414  1.0000
  C   C31       1.0  0.9059374967508704  0.37782823969644386  0.9711954635509059  1.0000
  C   C32       1.0  0.9446755112324206  0.36628130248780066  0.09150319249984551  1.0000
  C   C33       1.0  0.7048066359364465  0.4385829117937039  0.08082294780248911  1.0000
  C   C34       1.0  0.671471569980877  0.5281251916626291  0.16090077266153058  1.0000
  C   C35       1.0  0.5933943549208226  0.5516127939611946  0.1573048109960482  1.0000
  C   C36       1.0  0.5476132866807965  0.485967783752709  0.07382106293547985  1.0000
  C   C37       1.0  0.5802034848036871  0.3966978477477934  0.9938286664368285  1.0000
  C   C38       1.0  0.658272661129862  0.37311626982200563  0.9971878258347955  1.0000
  C   C39       1.0  0.467232703188226  0.5101989897662265  0.07023967627066097  1.0000
  N   N3        1.0  0.4026121342197579  0.5296793684407635  0.06736051790565023  1.0000
  H   H21       1.0  0.054152043939231564  0.33257633720128243  0.4241504488806769  1.0000
  H   H22       1.0  0.7970221443482612  0.4092163727441427  0.2936713824998949  1.0000
  H   H23       1.0  0.7972829366520892  0.4122782831330245  0.8761983201776076  1.0000
  H   H24       1.0  0.005144875881339717  0.34805471322044457  0.09419539880625649  1.0000
  H   H25       1.0  0.054269787344897846  0.3339604422645761  0.7686090399861802  1.0000
  H   H26       1.0  0.7058846662488136  0.5812295660255513  0.22505640334606802  1.0000
  H   H27       1.0  0.5687802502582321  0.6211927977889957  0.21939262015164562  1.0000
  H   H28       1.0  0.5452685383986042  0.3450688578330152  0.9290881784770857  1.0000
  H   H29       1.0  0.6821460132444898  0.30244189407797717  0.9356284398263424  1.0000
  Zn  Zn1       1.0  0.823257324937728  0.38195341621527223  0.587720529717467  1.0000
  Zn  Zn2       1.0  0.9886318499376415  0.3739547640537124  0.5918364425964255  1.0000
  C   C40       1.0  0.9059407775479789  0.3727022624880585  0.8270041106821722  1.0000
  C   C41       1.0  0.9059502029170925  0.38320746902251956  0.35255303390924553  1.0000
  C   C42       1.0  0.9059022819069265  0.6151495725979199  0.584581172184685  1.0000
  C   C43       1.0  0.9059886424028988  0.1407586013078872  0.5949760403928677  1.0000
  O   O3        1.0  0.9687060537444383  0.38188712030613403  0.40250674438964085  1.0000
  O   O4        1.0  0.9687003648742478  0.3679508396855351  0.7801739090383564  1.0000
  O   O5        1.0  0.9686684331011058  0.5637301492372497  0.5844156498387181  1.0000
  O   O6        1.0  0.9687379290875386  0.18610782280625227  0.5982649047970952  1.0000
  O   O7        1.0  0.8431511893536217  0.5698003601936956  0.581292066105406  1.0000
  O   O8        1.0  0.8431831208478007  0.37402261097771583  0.7770502559075176  1.0000
  O   O9        1.0  0.8431888098200586  0.38795884685535786  0.3993815296682106  1.0000
  O   O10       1.0  0.8432206851589915  0.1921795400346069  0.5951397874564579  1.0000
