data_image0
_chemical_formula_structural       NC9NC3OCH8C12BrH9C12OCH12Zn2C4O8
_chemical_formula_sum              "N2 C42 O10 H29 Br1 Zn2"
_cell_length_a       17.728193572023454
_cell_length_b       10.299144633409057
_cell_length_c       10.299794127170987
_cell_angle_alpha    85.56673362329126
_cell_angle_beta     90.69834653510783
_cell_angle_gamma    88.42800798751284

_space_group_name_H-M_alt    "P 1"
_space_group_IT_number       1

loop_
  _space_group_symop_operation_xyz
  'x, y, z'

loop_
  _atom_site_type_symbol
  _atom_site_label
  _atom_site_symmetry_multiplicity
  _atom_site_fract_x
  _atom_site_fract_y
  _atom_site_fract_z
  _atom_site_occupancy
  N   N1        1.0  0.710337384594073  0.3866239906120188  0.5849976239680994  1.0000
  C   C1        1.0  0.6497309736320515  0.3491968151051763  0.5980089557656914  1.0000
  C   C2        1.0  0.5742843154229107  0.30266984664590435  0.6142027155090384  1.0000
  C   C3        1.0  0.5624085772279925  0.17462464270789524  0.6236453448563115  1.0000
  C   C4        1.0  0.4857060821372766  0.1251736043842222  0.6386041641898392  1.0000
  C   C5        1.0  0.4275417384259002  0.20785474204784737  0.6560587076645021  1.0000
  C   C6        1.0  0.3494997133222403  0.16280950319037135  0.6778000340822365  1.0000
  C   C7        1.0  0.2881452087387994  0.24827469395309532  0.6423247115050481  1.0000
  C   C8        1.0  0.21387618548540271  0.2089746555925578  0.6624788852439878  1.0000
  C   C9        1.0  0.15154260344057383  0.2969762638772371  0.6249288492061591  1.0000
  N   N2        1.0  0.1014398142539792  0.36772103049411786  0.5947421697987105  1.0000
  C   C10       1.0  0.20033015621182673  0.08408986254363993  0.7191624458806511  1.0000
  C   C11       1.0  0.2607858430542356  0.9989426448002015  0.7560462170210214  1.0000
  C   C12       1.0  0.3349513127718364  0.037753055482802944  0.7360217085267131  1.0000
  O   O1        1.0  0.4408739826211173  0.34165034239559766  0.6547397541595337  1.0000
  C   C13       1.0  0.5085912115680968  0.39902143231023124  0.6061221703400239  1.0000
  H   H1        1.0  0.6093483970351394  0.1051579557332496  0.6215564745736497  1.0000
  H   H2        1.0  0.47807257716832363  0.021515811980869826  0.6366399108465068  1.0000
  H   H3        1.0  0.29802155915171746  0.3450950718245491  0.5978829652038398  1.0000
  H   H4        1.0  0.1431202151792358  0.0528036927032296  0.7353074198447407  1.0000
  H   H5        1.0  0.2501726442203804  0.9027813137732591  0.8009489643840162  1.0000
  H   H6        1.0  0.3804924312695916  0.9705264327328926  0.7684523569721728  1.0000
  H   H7        1.0  0.4991219417059014  0.43492463611239063  0.5025939733244118  1.0000
  H   H8        1.0  0.5214542507167327  0.4834297587502041  0.6626872788286908  1.0000
  C   C14       1.0  0.9059906658917537  0.9957728131384576  0.5899512471517447  1.0000
  C   C15       1.0  0.8738160993584518  0.006232452822497958  0.4641947103256223  1.0000
  C   C16       1.0  0.8574013378327516  0.894404095078453  0.4003550021243325  1.0000
  C   C17       1.0  0.8735953056637566  0.7709774846125821  0.46396797621202857  1.0000
  C   C18       1.0  0.9057937967408535  0.7585619111228751  0.589799965214542  1.0000
  C   C19       1.0  0.9217923465743421  0.8714809598344972  0.6520180368973851  1.0000
  C   C20       1.0  0.8233657024173284  0.9065142514380362  0.26731890332249875  1.0000
  C   C21       1.0  0.8486295189239518  0.0005739445737249493  0.17248539135406626  1.0000
  C   C22       1.0  0.8165282351860061  0.011768329550557954  0.04731721923569543  1.0000
  C   C23       1.0  0.7589012428505201  0.9294543128899676  0.015348023238108244  1.0000
  C   C24       1.0  0.7333448728169825  0.8357281512962169  0.1087337536842563  1.0000
  C   C25       1.0  0.7653146509205432  0.8241228213739281  0.23399892338560324  1.0000
  Br  Br1       1.0  0.715141357462395  0.9450256935884602  0.8443023757271919  1.0000
  H   H9        1.0  0.9183977561296002  0.31922546425027676  0.6382998438071823  1.0000
  H   H10       1.0  0.8604921684478204  0.10158274779875809  0.4163039537174229  1.0000
  H   H11       1.0  0.8620093268858793  0.6844550480683463  0.4145165077791848  1.0000
  H   H12       1.0  0.9466117589030801  0.8626974350714982  0.7490155027705558  1.0000
  H   H13       1.0  0.9670009330535044  0.5278406764046639  0.8269780303678087  1.0000
  H   H14       1.0  0.8938453391217549  0.06427692962266973  0.19461310420750855  1.0000
  H   H15       1.0  0.8366239235563264  0.08424597023238256  0.975163183089272  1.0000
  H   H16       1.0  0.6885811846673002  0.7720287636268376  0.08446880185148942  1.0000
  H   H17       1.0  0.7439918259958164  0.751918581148835  0.30526256595526413  1.0000
  C   C26       1.0  0.9059177094070565  0.3770526317220353  0.20852482930399296  1.0000
  C   C27       1.0  0.831981452255165  0.3315002576164461  0.2094987381600517  1.0000
  C   C28       1.0  0.7944965870606983  0.3085221094664632  0.09284482021929596  1.0000
  C   C29       1.0  0.8319300883928376  0.3317292217954084  0.9741925232989419  1.0000
  C   C30       1.0  0.9058667679603222  0.3772820829459742  0.9712263630352966  1.0000
  C   C31       1.0  0.9424473309648154  0.39968579342869504  0.08890196115073046  1.0000
  C   C32       1.0  0.7162783776695391  0.2603230780162491  0.09492991274405504  1.0000
  C   C33       1.0  0.6622411007009857  0.3116051132174116  0.0024258826978371673  1.0000
  C   C34       1.0  0.5887281537104774  0.26622493666371194  0.0046549201078824876  1.0000
  C   C35       1.0  0.5681838119088045  0.16927756427270668  0.09884854241309537  1.0000
  C   C36       1.0  0.621476945500536  0.11662680641311285  0.19219688358863007  1.0000
  C   C37       1.0  0.6950923109348007  0.16264162083292977  0.18951889952622292  1.0000
  O   O2        1.0  0.6037393236164639  0.018904768431151187  0.2885955157158415  1.0000
  C   C38       1.0  0.5314175366144915  0.9631228144406933  0.3028421599443365  1.0000
  H   H18       1.0  0.93410064705418  0.39435123921602355  0.5356115482819059  1.0000
  H   H19       1.0  0.8029934457391712  0.31547134433653334  0.3010568543267469  1.0000
  H   H20       1.0  0.80364630307706  0.3125004499750481  0.8841602412598135  1.0000
  H   H21       1.0  0.9994863633452296  0.434826679505246  0.08738224813271267  1.0000
  H   H22       1.0  0.9340246032463891  0.3947017064125391  0.6426383641620736  1.0000
  H   H23       1.0  0.6765731683537346  0.38798356683168933  0.9294494780189111  1.0000
  H   H24       1.0  0.5474577549780134  0.30661754662291973  0.9332813996273903  1.0000
  H   H25       1.0  0.5108615384093382  0.13601152290979246  0.09825569527243538  1.0000
  H   H26       1.0  0.7360305042746257  0.12051493279183578  0.2607107125296302  1.0000
  H   H27       1.0  0.5158756961480232  0.9154150700791661  0.2136036941095838  1.0000
  H   H28       1.0  0.5333759203735143  0.8885474514252377  0.3865771385212702  1.0000
  H   H29       1.0  0.48841658009065947  0.03946436435096645  0.32203357577669833  1.0000
  Zn  Zn1       1.0  0.8232011093741316  0.38116553627150185  0.5878171894477333  1.0000
  Zn  Zn2       1.0  0.9885761170958892  0.3731688834631084  0.5919332435844256  1.0000
  C   C39       1.0  0.9058760271917627  0.3720646835612229  0.8270604399960539  1.0000
  C   C40       1.0  0.9059030047367127  0.38227128763964013  0.35269016511866225  1.0000
  C   C41       1.0  0.9058274619685884  0.6143771421131745  0.5846535364577032  1.0000
  C   C42       1.0  0.9059515139270835  0.1399572714093933  0.5950971367973088  1.0000
  O   O3        1.0  0.9686570247488016  0.38098236197652846  0.4026353910023295  1.0000
  O   O4        1.0  0.9686378118011566  0.3672833548591199  0.7802388303291976  1.0000
  O   O5        1.0  0.9685977486583056  0.5629537709143528  0.584493519327985  1.0000
  O   O6        1.0  0.9686970314644734  0.18531195791168886  0.5983806032271324  1.0000
  O   O7        1.0  0.8430801385711738  0.5690224645531983  0.5813698283935882  1.0000
  O   O8        1.0  0.8431202013124542  0.3733536089065377  0.7771150698430673  1.0000
  O   O9        1.0  0.8431394144263071  0.38705257029225115  0.3995100692000033  1.0000
  O   O10       1.0  0.8431794211347843  0.19138215696729532  0.5952553787897781  1.0000
