data_image0
_chemical_formula_structural       NC9NC3OCH8C12SCH12C12NCOCH13Zn2C4O8
_chemical_formula_sum              "N3 C44 O10 H33 S1 Zn2"
_cell_length_a       17.728193572023454
_cell_length_b       10.299776766347529
_cell_length_c       10.299158637457994
_cell_angle_alpha    85.5824420436923
_cell_angle_beta     90.68674526026635
_cell_angle_gamma    88.43488659094774

_space_group_name_H-M_alt    "P 1"
_space_group_IT_number       1

loop_
  _space_group_symop_operation_xyz
  'x, y, z'

loop_
  _atom_site_type_symbol
  _atom_site_label
  _atom_site_symmetry_multiplicity
  _atom_site_fract_x
  _atom_site_fract_y
  _atom_site_fract_z
  _atom_site_occupancy
  N   N1        1.0  0.7106046404123185  0.38641248235108017  0.5852162323140686  1.0000
  C   C1        1.0  0.6499940072480165  0.3489892539773556  0.5982203077364627  1.0000
  C   C2        1.0  0.5745420980286511  0.30246719365582675  0.6144050478578327  1.0000
  C   C3        1.0  0.5626560812020077  0.17443303985376812  0.6238209635687069  1.0000
  C   C4        1.0  0.4859482726957391  0.12498706052396136  0.6387700751425094  1.0000
  C   C5        1.0  0.427787768264794  0.2076627106810618  0.6562431361332219  1.0000
  C   C6        1.0  0.3497399390949736  0.16262264786228564  0.677976056621431  1.0000
  C   C7        1.0  0.2883957606508706  0.24807842206129727  0.642516993696016  1.0000
  C   C8        1.0  0.2141215327326518  0.20878298253517835  0.6626638974655441  1.0000
  C   C9        1.0  0.151798704678082  0.29677482329873395  0.6251305486116394  1.0000
  N   N2        1.0  0.1017045606682357  0.3675117377688015  0.5949572840784787  1.0000
  C   C10       1.0  0.20055983888777412  0.08391228833179953  0.7193239598129444  1.0000
  C   C11       1.0  0.2610050550144966  0.9987745598920265  0.7561916147325696  1.0000
  C   C12       1.0  0.3351756789786725  0.03758042054008914  0.7361742790954724  1.0000
  O   O1        1.0  0.4411297372742305  0.3414473626709842  0.6549525561607143  1.0000
  C   C13       1.0  0.5088568444908195  0.3988103960779241  0.6063445516913033  1.0000
  H   H1        1.0  0.6095911813809157  0.1049718432115665  0.6217172124110641  1.0000
  H   H2        1.0  0.4783075881848757  0.021337541413497307  0.636783678706698  1.0000
  H   H3        1.0  0.29828431440650227  0.34488783469449324  0.598093438372906  1.0000
  H   H4        1.0  0.1433457425562725  0.052629786588424876  0.7354631516766887  1.0000
  H   H5        1.0  0.2503796452041038  0.9026241728820218  0.8010763360491682  1.0000
  H   H6        1.0  0.38070813732226394  0.9703615214733498  0.7685923814288849  1.0000
  H   H7        1.0  0.4994024407285718  0.43470344352008317  0.5028184136281955  1.0000
  H   H8        1.0  0.5217192003268596  0.4832158311823229  0.6629306506052408  1.0000
  C   C14       1.0  0.9062293822921565  0.9955933648351036  0.5900870284081638  1.0000
  C   C15       1.0  0.9107388284663003  0.983862278619795  0.7267139282391606  1.0000
  C   C16       1.0  0.9129511426691578  0.8607829361175813  0.795947414812767  1.0000
  C   C17       1.0  0.9105945252180478  0.7485814814034149  0.7267255245103104  1.0000
  C   C18       1.0  0.9060870946808828  0.7583205224312941  0.5900979254965373  1.0000
  C   C19       1.0  0.9039293301428121  0.8822643857116415  0.5225434699976352  1.0000
  C   C20       1.0  0.917713311408646  0.8494370785956254  0.9404830519593677  1.0000
  C   C21       1.0  0.8745092649678957  0.7580909419899129  0.013450039977459194  1.0000
  C   C22       1.0  0.8790136882260615  0.7476465216304757  0.1494722226005607  1.0000
  C   C23       1.0  0.9265336667388613  0.8282794220772908  0.21432940391815247  1.0000
  C   C24       1.0  0.9699175480022213  0.9190435699143755  0.1427399667782303  1.0000
  C   C25       1.0  0.9655237839890614  0.929832527486677  0.006710125269235201  1.0000
  S   S1        1.0  0.9323966803661573  0.8144132344080774  0.3888666510370479  1.0000
  C   C26       1.0  0.8565601764155671  0.934146969638559  0.4065066181350855  1.0000
  H   H9        1.0  0.9045407678856874  0.3275154883639815  0.5380267170308852  1.0000
  H   H10       1.0  0.9115003555309517  0.07067541311606607  0.7796914942554674  1.0000
  H   H11       1.0  0.9133237742282251  0.6534546440868337  0.7795559628614825  1.0000
  H   H12       1.0  0.9004510001271356  0.8905459067036035  0.41714163898354184  1.0000
  H   H13       1.0  0.9043318819862718  0.43457959197070434  0.538040621155149  1.0000
  H   H14       1.0  0.8365290214166855  0.695945562785483  0.96538970671104  1.0000
  H   H15       1.0  0.845263497290993  0.6772351389929538  0.20435339084015958  1.0000
  H   H16       1.0  0.0070943227143660526  0.9812842200942522  0.19236923073101242  1.0000
  H   H17       1.0  0.00022617440064576222  0.9998294457242477  0.9532657231350037  1.0000
  H   H18       1.0  0.8716764106621847  0.02972873859903724  0.3580052110453019  1.0000
  H   H19       1.0  0.8477961447732751  0.9452874093095621  0.5115681425384134  1.0000
  H   H20       1.0  0.8034655457163635  0.901165370050428  0.3630618988271209  1.0000
  C   C27       1.0  0.9062290035449672  0.3768155607026482  0.20872113350058252  1.0000
  C   C28       1.0  0.907956891852376  0.513433960941581  0.1974532097745736  1.0000
  C   C29       1.0  0.9087736996636102  0.582844099624541  0.07458111101934328  1.0000
  C   C30       1.0  0.9078123602724045  0.5138008119214608  0.9621381381715426  1.0000
  C   C31       1.0  0.9060874500177016  0.3770983597054596  0.9714638283335613  1.0000
  C   C32       1.0  0.9053096922208377  0.30944612530385207  0.0951435789254853  1.0000
  C   C33       1.0  0.9106024978329073  0.727369559008993  0.06363459147313977  1.0000
  C   C34       1.0  0.9569084136952792  0.792964957478961  0.14735658911003702  1.0000
  C   C35       1.0  0.958635559452845  0.9289707398192011  0.13692463281629141  1.0000
  C   C36       1.0  0.9145696086745739  0.0020849841400751856  0.04167887592766739  1.0000
  C   C37       1.0  0.8673649197455721  0.9368934052377049  0.9597175789019574  1.0000
  C   C38       1.0  0.8656687512970632  0.8009140350248696  0.9698893204122347  1.0000
  N   N3        1.0  0.9142552873513393  0.14214475906119706  0.03043831611297043  1.0000
  C   C39       1.0  0.9788969041212057  0.21800792167793714  0.055281392190313694  1.0000
  O   O2        1.0  0.043971341840655986  0.16545088358773619  0.06541738876717007  1.0000
  C   C40       1.0  0.9700178885621172  0.36225074174074656  0.05966552233808953  1.0000
  H   H21       1.0  0.9055880270952511  0.3242632757830539  0.540531621135321  1.0000
  H   H22       1.0  0.9076171465439153  0.566267103181606  0.28439660115713616  1.0000
  H   H23       1.0  0.9094385310501785  0.5667353003524529  0.8672080344937614  1.0000
  H   H24       1.0  0.9039795149547372  0.20406903648010855  0.10311995895595794  1.0000
  H   H25       1.0  0.9032899136293933  0.11904211450076274  0.7817847749115914  1.0000
  H   H26       1.0  0.9922381774774406  0.739031047098206  0.22042809394044194  1.0000
  H   H27       1.0  0.9934495481969345  0.9766273697070333  0.20482418769170696  1.0000
  H   H28       1.0  0.8320564799001022  0.9917012837358425  0.8872159122934451  1.0000
  H   H29       1.0  0.8283824423841764  0.7533301057330084  0.9056124289098224  1.0000
  H   H30       1.0  0.8653275509306865  0.19196382257915667  0.9942738452953139  1.0000
  H   H31       1.0  0.916949804146903  0.3865298349363986  0.10976197779493413  1.0000
  H   H32       1.0  0.9679802248192374  0.40901609432485175  0.9588968574321619  1.0000
  H   H33       1.0  0.018155683047546223  0.4006916167875434  0.11352001284998803  1.0000
  Zn  Zn1       1.0  0.8234676398935955  0.38095466817243717  0.5880347891481088  1.0000
  Zn  Zn2       1.0  0.9888415867869076  0.3729589521804664  0.5921493648287857  1.0000
  C   C41       1.0  0.9061134861632892  0.3718712922049694  0.8272889857464418  1.0000
  C   C42       1.0  0.9061975460661761  0.3820438795003416  0.3528953406521118  1.0000
  C   C43       1.0  0.9061110459827316  0.6141471300510988  0.5849205459176527  1.0000
  C   C44       1.0  0.9061999300944412  0.13976648410707293  0.5952638482937076  1.0000
  O   O3        1.0  0.9689455406985041  0.3807585527648383  0.40284298156656106  1.0000
  O   O4        1.0  0.9688804909825084  0.36708707565061505  0.7804638387064533  1.0000
  O   O5        1.0  0.9688776742399475  0.5627279201124118  0.5847495877175031  1.0000
  O   O6        1.0  0.9689483010264776  0.18511772028555096  0.5985571337763333  1.0000
  O   O7        1.0  0.8433608692200145  0.5687959027973088  0.5816270187896275  1.0000
  O   O8        1.0  0.8433636856808572  0.3731566186126076  0.7773412005548377  1.0000
  O   O9        1.0  0.8434287357452654  0.3868280498896115  0.39971878200496636  1.0000
  O   O10       1.0  0.8434314960538156  0.19118720815777124  0.5954330315829834  1.0000
