data_image0
_chemical_formula_structural       NC9NC3OCH8C12SCH12C12ClH9Zn2C4O8
_chemical_formula_sum              "N2 C42 O9 H29 S1 Cl1 Zn2"
_cell_length_a       17.728193572023454
_cell_length_b       10.299776766347529
_cell_length_c       10.299771906710086
_cell_angle_alpha    85.54586025256013
_cell_angle_beta     90.7132806509017
_cell_angle_gamma    88.43488659094774

_space_group_name_H-M_alt    "P 1"
_space_group_IT_number       1

loop_
  _space_group_symop_operation_xyz
  'x, y, z'

loop_
  _atom_site_type_symbol
  _atom_site_label
  _atom_site_symmetry_multiplicity
  _atom_site_fract_x
  _atom_site_fract_y
  _atom_site_fract_z
  _atom_site_occupancy
  N   N1        1.0  0.7102087532591258  0.3873378393489846  0.5852205766750116  1.0000
  C   C1        1.0  0.6496017589168945  0.3499061054972723  0.5982246121659345  1.0000
  C   C2        1.0  0.5741543785384997  0.3033734593442736  0.6144093025890012  1.0000
  C   C3        1.0  0.5622709964890928  0.17533314694491242  0.6238251893865268  1.0000
  C   C4        1.0  0.48556737106815423  0.12587738996192477  0.6387742550562572  1.0000
  C   C5        1.0  0.4274117559782739  0.20854161164519613  0.6562472623926332  1.0000
  C   C6        1.0  0.3493700081505068  0.1634873341382692  0.6779801161458026  1.0000
  C   C7        1.0  0.2880159074922838  0.24896630078037107  0.642521162104142  1.0000
  C   C8        1.0  0.21374731711427514  0.2096576839201496  0.6626680040087944  1.0000
  C   C9        1.0  0.1514139864154377  0.2976740738394208  0.6251347704081309  1.0000
  N   N2        1.0  0.10131139927239231  0.36843072351010586  0.5949615985276815  1.0000
  C   C10       1.0  0.2002014779825308  0.08474993049514867  0.7193278923707647  1.0000
  C   C11       1.0  0.26065701047793405  0.9995880883050937  0.7561954340812878  1.0000
  C   C12       1.0  0.3348220331578707  0.038407041541603126  0.736178159911203  1.0000
  O   O1        1.0  0.4407533638554705  0.3423271077550727  0.6549566863830953  1.0000
  C   C13       1.0  0.5084668694991892  0.39972193383458765  0.6063488311737488  1.0000
  H   H1        1.0  0.6092055079928437  0.10587332628743762  0.6217214446888495  1.0000
  H   H2        1.0  0.47792613072052764  0.022229170078865268  0.6367878647200511  1.0000
  H   H3        1.0  0.2978920305745833  0.345804769194902  0.5980977431919543  1.0000
  H   H4        1.0  0.1429918977466106  0.053456872711710846  0.7354670346760706  1.0000
  H   H5        1.0  0.2500441603851107  0.9034083438823752  0.8010800175708668  1.0000
  H   H6        1.0  0.38036356278891814  0.971166939010039  0.7685961626987052  1.0000
  H   H7        1.0  0.4989834968803466  0.4356826938406806  0.5028230110072136  1.0000
  H   H8        1.0  0.5213450593517913  0.48409035809407097  0.662934756329375  1.0000
  C   C14       1.0  0.9058348580932498  0.9965155360279726  0.5900913578124074  1.0000
  C   C15       1.0  0.9103825354343458  0.9846950872819733  0.7267178381046868  1.0000
  C   C16       1.0  0.9126142226668713  0.8615704617529439  0.7959511120837877  1.0000
  C   C17       1.0  0.9102382354309811  0.7494142824809069  0.7267294343402277  1.0000
  C   C18       1.0  0.9056925735312175  0.7592426864967863  0.5901022548673187  1.0000
  C   C19       1.0  0.9035159057927538  0.8832307346126987  0.5225480068071398  1.0000
  C   C20       1.0  0.9174168356093758  0.8501300688918537  0.9404863054063979  1.0000
  C   C21       1.0  0.8742332069128936  0.7587362073160638  0.013453069365562675  1.0000
  C   C22       1.0  0.8787756921250344  0.7482028199487804  0.14947483430684527  1.0000
  C   C23       1.0  0.9263138190824676  0.828793299745905  0.2143318164682041  1.0000
  C   C24       1.0  0.969677668070143  0.9196042715487058  0.14274259915717868  1.0000
  C   C25       1.0  0.9652458399598864  0.9304822011382434  0.00671317535352034  1.0000
  S   S1        1.0  0.9322256720133136  0.8148129538097503  0.3888685276374959  1.0000
  C   C26       1.0  0.8563941041077336  0.934535151399378  0.40650844056868063  1.0000
  H   H9        1.0  0.9041316760836343  0.32847171025388744  0.5380312062961536  1.0000
  H   H10       1.0  0.911158886769866  0.07147357113935149  0.7796952414433642  1.0000
  H   H11       1.0  0.9129822675425188  0.6542528907561208  0.7795597104655541  1.0000
  H   H12       1.0  0.9000080820609533  0.8915811949890025  0.41714649944928905  1.0000
  H   H13       1.0  0.9039227940748941  0.4355358047664438  0.5380451103777222  1.0000
  H   H14       1.0  0.8362395150390827  0.6966222625730163  0.9653928836774799  1.0000
  H   H15       1.0  0.8450408581299835  0.6777555415975505  0.2043558340234446  1.0000
  H   H16       1.0  0.006868330125689548  0.9818124610884845  0.19237171071392623  1.0000
  H   H17       1.0  0.9999332754697409  0.0005140753547019372  0.9532689373304264  1.0000
  H   H18       1.0  0.8714967666097374  0.03014864331108358  0.3580071824116342  1.0000
  H   H19       1.0  0.8476594709564025  0.94560687426783  0.5115696423607421  1.0000
  H   H20       1.0  0.803287316634724  0.9015819673726577  0.3630638546659375  1.0000
  C   C27       1.0  0.9057277649053749  0.37798716902341956  0.20872663396088154  1.0000
  C   C28       1.0  0.974164744356057  0.4435611070262315  0.20410477512818948  1.0000
  C   C29       1.0  0.008879139190243635  0.4766780156667263  0.08463341981431216  1.0000
  C   C30       1.0  0.9742375819850159  0.44334242537726953  0.9688368089218931  1.0000
  C   C31       1.0  0.9057996317653955  0.3777710941738348  0.9714669876638005  1.0000
  C   C32       1.0  0.8719283201826957  0.34545981841297535  0.09188948496737948  1.0000
  C   C33       1.0  0.08128025833285912  0.5460483541343877  0.08079763848455346  1.0000
  C   C34       1.0  0.09318818309762067  0.6484769894695863  0.16089827333683493  1.0000
  C   C35       1.0  0.1613678357098296  0.713667751920902  0.15710142181188647  1.0000
  C   C36       1.0  0.21841315581862464  0.6774394649117375  0.07353352545498382  1.0000
  C   C37       1.0  0.20722551719219373  0.5758354686489324  0.9935796418807068  1.0000
  C   C38       1.0  0.13911354419170352  0.5104411141341065  0.9970025440543191  1.0000
  Cl  Cl1       1.0  0.3039095658530888  0.7593558533900144  0.06900496956660263  1.0000
  H   H21       1.0  0.8796299281030513  0.35305848309200205  0.5379362368345  1.0000
  H   H22       1.0  0.001160313885628872  0.46745536852510994  0.2937584236377986  1.0000
  H   H23       1.0  0.00023852777335542363  0.47022632469577297  0.8763753691232732  1.0000
  H   H24       1.0  0.8191318819394557  0.2948736857947878  0.09468682240645099  1.0000
  H   H25       1.0  0.8797360152098409  0.3527387853957482  0.6450196883825026  1.0000
  H   H26       1.0  0.04943382221317805  0.6792451114209743  0.22518298144453563  1.0000
  H   H27       1.0  0.16969747937014024  0.792538391031469  0.21894400105702716  1.0000
  H   H28       1.0  0.2513238674939009  0.5471978469600074  0.9289599668675179  1.0000
  H   H29       1.0  0.1320365785548525  0.43096964312931285  0.9354106895464898  1.0000
  Zn  Zn1       1.0  0.8230725414336765  0.38187818165803233  0.5880391248541403  1.0000
  Zn  Zn2       1.0  0.9884476396744172  0.3738797744764346  0.5921536879002351  1.0000
  C   C39       1.0  0.905785336211647  0.3726383184943183  0.8272925867772454  1.0000
  C   C40       1.0  0.9057366504936564  0.38312118887978186  0.3529003983982597  1.0000
  C   C41       1.0  0.9057150760900785  0.6150726804463851  0.5849248911865568  1.0000
  C   C42       1.0  0.9058068544819079  0.1406852693362226  0.5952681618015467  1.0000
  O   O2        1.0  0.9684986215581588  0.3818031932657515  0.4028478859390381  1.0000
  O   O3        1.0  0.9685392383401352  0.36788472851236387  0.7804675835227204  1.0000
  O   O4        1.0  0.9684816565094857  0.5636535823250441  0.5847539335113665  1.0000
  O   O5        1.0  0.9685561469465799  0.1860343515001881  0.5985614371715171  1.0000
  O   O6        1.0  0.8429639777271083  0.5697236073651584  0.5816313741719292  1.0000
  O   O7        1.0  0.8430215592566688  0.37395631387484984  0.7773449549597558  1.0000
  O   O8        1.0  0.8429809423861886  0.3878747338122781  0.39972369597088875  1.0000
  O   O9        1.0  0.8430384677824325  0.1921058827304769  0.5954373445713135  1.0000
