data_image0
_chemical_formula_structural       NC9NC3OCH8C12NH11C13NH13Zn2C4O8
_chemical_formula_sum              "N4 C42 O9 H32 Zn2"
_cell_length_a       17.728193572023454
_cell_length_b       10.299770795358612
_cell_length_c       10.299780419254978
_cell_angle_alpha    85.56832973562953
_cell_angle_beta     90.69152596638011
_cell_angle_gamma    88.47103896228896

_space_group_name_H-M_alt    "P 1"
_space_group_IT_number       1

loop_
  _space_group_symop_operation_xyz
  'x, y, z'

loop_
  _atom_site_type_symbol
  _atom_site_label
  _atom_site_symmetry_multiplicity
  _atom_site_fract_x
  _atom_site_fract_y
  _atom_site_fract_z
  _atom_site_occupancy
  N   N1        1.0  0.7110401355899152  0.38660073047639076  0.585147592502457  1.0000
  C   C1        1.0  0.6504164690191492  0.3491759887037449  0.5981547391779674  1.0000
  C   C2        1.0  0.5749483584998458  0.30265204434225024  0.614343296359877  1.0000
  C   C3        1.0  0.5630159711197668  0.17461768179595483  0.6237714165098742  1.0000
  C   C4        1.0  0.4862908287264622  0.12517001917407433  0.6387246940413487  1.0000
  C   C5        1.0  0.428161462545898  0.20784246734065315  0.6561887347219222  1.0000
  C   C6        1.0  0.3500982559200677  0.1627997214469663  0.6779250573057867  1.0000
  C   C7        1.0  0.288783546659532  0.248259768116059  0.6424592600697161  1.0000
  C   C8        1.0  0.21449596278412683  0.2089618197202605  0.6626090746405622  1.0000
  C   C9        1.0  0.15220342660314343  0.2969582045301269  0.625068841065882  1.0000
  N   N2        1.0  0.1021336343201907  0.3676987719857163  0.594890041888565  1.0000
  C   C10       1.0  0.2008914535757604  0.08408419589344063  0.7192787429161673  1.0000
  C   C11       1.0  0.2613073883803402  0.9989419926332809  0.7561530325493733  1.0000
  C   C12       1.0  0.3354911957376857  0.03775034809769595  0.7361328282518005  1.0000
  O   O1        1.0  0.4415523186128866  0.34162612642124013  0.6548849885922234  1.0000
  C   C13       1.0  0.5092979484066316  0.39899554199735543  0.6062736637721506  1.0000
  H   H1        1.0  0.6099255482905988  0.10515739364116738  0.6216746354409413  1.0000
  H   H2        1.0  0.4786121174642426  0.021521692384182334  0.6367486425502109  1.0000
  H   H3        1.0  0.2987052690066195  0.3450746234391546  0.598028281499871  1.0000
  H   H4        1.0  0.14366672987274762  0.05279968263241064  0.7354202471599693  1.0000
  H   H5        1.0  0.2506490745240538  0.9027860918082518  0.8010450896368297  1.0000
  H   H6        1.0  0.3810007035425241  0.9705274471017576  0.7685560087617853  1.0000
  H   H7        1.0  0.4998514241124505  0.43490294054560885  0.5027489852880174  1.0000
  H   H8        1.0  0.5221940604358646  0.48339221876572  0.662848679015855  1.0000
  C   C14       1.0  0.9065221217561829  0.9957843575683438  0.5900567970505375  1.0000
  C   C15       1.0  0.8846368545771968  0.005989671327794266  0.4581064082667623  1.0000
  C   C16       1.0  0.8736166394908993  0.8940212735834034  0.39121273658037214  1.0000
  C   C17       1.0  0.8847749890498283  0.7707013672808908  0.45804129917037906  1.0000
  C   C18       1.0  0.9066588905122338  0.7585048278306186  0.5899922044586507  1.0000
  C   C19       1.0  0.9174102736892403  0.8716068379510528  0.6552609299707806  1.0000
  C   C20       1.0  0.8504636274338384  0.9058712924194566  0.25161689201907667  1.0000
  C   C21       1.0  0.7955204524996543  0.9996951257179644  0.20506283913168866  1.0000
  C   C22       1.0  0.7737611952919705  0.01071757404044682  0.07367497545356816  1.0000
  C   C23       1.0  0.80653328986904  0.9283550985727553  0.9867508492009516  1.0000
  C   C24       1.0  0.8612954978937895  0.834737905550819  0.03240987044658339  1.0000
  C   C25       1.0  0.8831152113878257  0.823456503226444  0.16376926830840333  1.0000
  N   N3        1.0  0.7842442354283884  0.939762578560083  0.8523654003518577  1.0000
  H   H9        1.0  0.914829325344615  0.3193494737201725  0.6403523446483179  1.0000
  H   H10       1.0  0.8771102711257919  0.10124792572031627  0.40656870310871085  1.0000
  H   H11       1.0  0.8753539949130094  0.6841171316049187  0.40739646877773494  1.0000
  H   H12       1.0  0.9342931923463929  0.8629658922439212  0.7570547964247081  1.0000
  H   H13       1.0  0.9150304827849131  0.42640335121437456  0.6402577358611261  1.0000
  H   H14       1.0  0.7686670894965069  0.06341801580293382  0.27059451323463835  1.0000
  H   H15       1.0  0.731219659120684  0.0832478807156587  0.039704962523682275  1.0000
  H   H16       1.0  0.8872156811957209  0.7707144169796395  0.9661657042330916  1.0000
  H   H17       1.0  0.9262354599244614  0.7514081951345594  0.19631421173720964  1.0000
  H   H18       1.0  0.8083530292461185  0.8787881303032476  0.7868289661230192  1.0000
  H   H19       1.0  0.7434691603851821  0.009267275579504686  0.8174162639461686  1.0000
  C   C26       1.0  0.9066418798544211  0.37705723122468426  0.20867165775758645  1.0000
  C   C27       1.0  0.9612965273903709  0.4734447644379398  0.20136275698893535  1.0000
  C   C28       1.0  0.9889323004189123  0.5223831871870976  0.08051390143327919  1.0000
  C   C29       1.0  0.9611929139701305  0.4736220046435886  0.9660599846853168  1.0000
  C   C30       1.0  0.9065391624865899  0.377231908780403  0.971377354647387  1.0000
  C   C31       1.0  0.8795676162769194  0.3294928055795523  0.09314506911043274  1.0000
  C   C32       1.0  0.046754768606979136  0.624350222737833  0.07387335212874246  1.0000
  C   C33       1.0  0.04167216771786886  0.7291734151248399  0.9779111266172729  1.0000
  C   C34       1.0  0.09612043976391216  0.8250583813213181  0.9717471819880532  1.0000
  C   C35       1.0  0.15627446251080057  0.8184479852634081  0.06192046876577195  1.0000
  C   C36       1.0  0.16208043708179365  0.7133109944039491  0.15684396641773812  1.0000
  C   C37       1.0  0.10764776384499775  0.6174005753482859  0.16318107249697245  1.0000
  C   C38       1.0  0.21588446850933685  0.9197846236461282  0.05294067827570004  1.0000
  N   N4        1.0  0.27372887957039027  0.8843370550373484  0.9615066583931711  1.0000
  H   H20       1.0  0.8858465605902204  0.3402807233409979  0.5389142778422433  1.0000
  H   H21       1.0  0.9817596322296515  0.5119615764722563  0.2897388698124943  1.0000
  H   H22       1.0  0.9830760232889197  0.5097193197565615  0.8727943025660365  1.0000
  H   H23       1.0  0.8374042956091813  0.2551331540467834  0.09801499552614379  1.0000
  H   H24       1.0  0.8856992629553282  0.3405265502570656  0.6459478482131917  1.0000
  H   H25       1.0  0.9951324584477186  0.7377691326972375  0.9084495156224008  1.0000
  H   H26       1.0  0.09127427022459189  0.9046926016969379  0.8967801252955883  1.0000
  H   H27       1.0  0.2089004826009182  0.7053539863618292  0.22578597831908898  1.0000
  H   H28       1.0  0.11380900291113982  0.5366856396220632  0.23671509167567195  1.0000
  H   H29       1.0  0.18982639038326932  0.016070419625983323  0.01900255078301938  1.0000
  H   H30       1.0  0.24191084043271216  0.9298370679094117  0.15044469244712788  1.0000
  H   H31       1.0  0.31182382217802385  0.9601872562639469  0.9525091991267649  1.0000
  H   H32       1.0  0.3039897380863552  0.802571252853066  0.0030401045410404226  1.0000
  Zn  Zn1       1.0  0.8239012810694147  0.38114256495799625  0.5879665526399596  1.0000
  Zn  Zn2       1.0  0.9892725111019879  0.37314633632326055  0.5920817198688575  1.0000
  C   C39       1.0  0.9065559459421502  0.37202537367951627  0.827210072095443  1.0000
  C   C40       1.0  0.9066196523546138  0.3822650789160871  0.35283837267329377  1.0000
  C   C41       1.0  0.9066298555399523  0.6143334186554636  0.5848294020605638  1.0000
  C   C42       1.0  0.9065456860380455  0.13995547639708183  0.5952191106717091  1.0000
  O   O2        1.0  0.9693697115445855  0.38097268739485357  0.4027837241746568  1.0000
  O   O3        1.0  0.9693188237917788  0.3672478328884714  0.7803876635549298  1.0000
  O   O4        1.0  0.9693776605434329  0.5629146848262196  0.5846635364514803  1.0000
  O   O5        1.0  0.9693108183777152  0.18530584745350343  0.5985077525025215  1.0000
  O   O6        1.0  0.843862917360604  0.5689830565578853  0.5815405185951601  1.0000
  O   O7        1.0  0.8438040808946324  0.37331776489332746  0.7772645763239385  1.0000
  O   O8        1.0  0.8438549688998376  0.3870425737840979  0.3996590756137606  1.0000
  O   O9        1.0  0.8437960757150997  0.191375724576482  0.5953832013060745  1.0000
