data_image0
_chemical_formula_structural       NC9NC3OCH8C12ClH9C15H12Zn2C4O8
_chemical_formula_sum              "N2 C44 O9 H29 Cl1 Zn2"
_cell_length_a       17.728193572023454
_cell_length_b       10.299768534541528
_cell_length_c       10.299157797200024
_cell_angle_alpha    85.54593967103355
_cell_angle_beta     90.72660703466438
_cell_angle_gamma    88.47167022583639

_space_group_name_H-M_alt    "P 1"
_space_group_IT_number       1

loop_
  _space_group_symop_operation_xyz
  'x, y, z'

loop_
  _atom_site_type_symbol
  _atom_site_label
  _atom_site_symmetry_multiplicity
  _atom_site_fract_x
  _atom_site_fract_y
  _atom_site_fract_z
  _atom_site_occupancy
  N   N1        1.0  0.710535185740362  0.3873227443364724  0.5851461954327597  1.0000
  C   C1        1.0  0.649915980109747  0.34989157790514436  0.5981506510431978  1.0000
  C   C2        1.0  0.5744534220295286  0.30335963701099855  0.6143358649248578  1.0000
  C   C3        1.0  0.5625235271449369  0.17532148867253228  0.6237509780001542  1.0000
  C   C4        1.0  0.4858034659699165  0.12586649558300667  0.6387004580104148  1.0000
  C   C5        1.0  0.4276810653279095  0.20852917026584983  0.6561754497406558  1.0000
  C   C6        1.0  0.34962544189697825  0.16347553703709417  0.6779091925321159  1.0000
  C   C7        1.0  0.2882984474847315  0.24895324458946733  0.6424489157712172  1.0000
  C   C8        1.0  0.2140179113594477  0.20964518230083296  0.6625966080804626  1.0000
  C   C9        1.0  0.1517123533725054  0.29766028225549523  0.6250619480821014  1.0000
  N   N2        1.0  0.101632092786966  0.3684158949201821  0.5948876295105177  1.0000
  C   C10       1.0  0.20043311794459293  0.08473923791732996  0.719258734739735  1.0000
  C   C11       1.0  0.2608618530511369  0.9995786403460613  0.7561276913625619  1.0000
  C   C12       1.0  0.3350386562528462  0.03839704669168098  0.7361095697274831  1.0000
  O   O1        1.0  0.4410724291108526  0.3423123508243322  0.6548862210789548  1.0000
  C   C13       1.0  0.5088007813397003  0.3997064892817419  0.6062759142443799  1.0000
  H   H1        1.0  0.6094318308430525  0.10586288787088916  0.6216463588976826  1.0000
  H   H2        1.0  0.4781232741429052  0.02222008863833924  0.6367128355654816  1.0000
  H   H3        1.0  0.2982047039383999  0.34579031364745516  0.5980237302718345  1.0000
  H   H4        1.0  0.1432140414548535  0.05344662098126385  0.7353985603776874  1.0000
  H   H5        1.0  0.2502191778005949  0.9034002809039521  0.8010140775487309  1.0000
  H   H6        1.0  0.38055947534513057  0.9711579058024395  0.7685288982884346  1.0000
  H   H7        1.0  0.49931682854563403  0.43566728339855576  0.5027439511725895  1.0000
  H   H8        1.0  0.5217181114357577  0.4840730880682731  0.6628663079238339  1.0000
  C   C14       1.0  0.9060160894643687  0.996507198341126  0.5900131100094337  1.0000
  C   C15       1.0  0.910955089939326  0.00587334876688228  0.4536592562081465  1.0000
  C   C16       1.0  0.9135302716742877  0.8934763750027196  0.3845768704540373  1.0000
  C   C17       1.0  0.9110992245365882  0.7705786589503585  0.4536783371672797  1.0000
  C   C18       1.0  0.9061584487518488  0.7592210653288892  0.590032084695872  1.0000
  C   C19       1.0  0.903645105585671  0.8727413044234611  0.6574359030547312  1.0000
  C   C20       1.0  0.9187563258294726  0.9044386006543694  0.24032588513744768  1.0000
  C   C21       1.0  0.8758073804452636  7.636383011200287e-05  0.16478797372920484  1.0000
  C   C22       1.0  0.8807935316926674  0.010195275213397581  0.0290245069704258  1.0000
  C   C23       1.0  0.9286553649713696  0.9252025861918081  0.9671051704200013  1.0000
  C   C24       1.0  0.9715915974652027  0.82987811632499  0.04113145664358342  1.0000
  C   C25       1.0  0.9667394635021207  0.8193604706814424  0.17691290561801454  1.0000
  Cl  Cl1       1.0  0.9348271470746456  0.938148374016916  0.7967639702624663  1.0000
  H   H9        1.0  0.9040953657510554  0.32039385711715096  0.6419664227218109  1.0000
  H   H10       1.0  0.9138524867131395  0.10076080253121589  0.4009957637874286  1.0000
  H   H11       1.0  0.9120271774133137  0.6837152276204399  0.4007522221660065  1.0000
  H   H12       1.0  0.8998341298023166  0.8647475987512494  0.7626266054728252  1.0000
  H   H13       1.0  0.9043058300150035  0.42743809061153193  0.6419948952017083  1.0000
  H   H14       1.0  0.8376622278924716  0.06588290571324373  0.210584044148048  1.0000
  H   H15       1.0  0.8472748452514202  0.08394571655602134  0.9720745969600713  1.0000
  H   H16       1.0  0.00889475773580628  0.7640661493983523  0.9936248375360033  1.0000
  H   H17       1.0  0.0012154172428175958  0.7458574905703368  0.23239226703618066  1.0000
  C   C26       1.0  0.9059997892619859  0.37797463201994397  0.20862841625567374  1.0000
  C   C27       1.0  0.8273940419260315  0.36379548414243  0.20684530126045453  1.0000
  C   C28       1.0  0.7877001706477369  0.3564894442413642  0.08880290940850921  1.0000
  C   C29       1.0  0.827618223760505  0.36357591673655576  0.9715835863147833  1.0000
  C   C30       1.0  0.9061747143071778  0.3777536511583317  0.9714167911183007  1.0000
  C   C31       1.0  0.944906776479473  0.3848644581074512  0.09045806548334201  1.0000
  C   C32       1.0  0.7045962933933085  0.341504265538636  0.08796405611372671  1.0000
  C   C33       1.0  0.6706239163120552  0.25616842312227117  0.0060090653399764715  1.0000
  C   C34       1.0  0.5924197034242554  0.24215978924188208  0.005251930681967387  1.0000
  C   C35       1.0  0.5467948379586544  0.312545272024882  0.0869469739956854  1.0000
  C   C36       1.0  0.5803635076287621  0.3987461697223782  0.16791521107079999  1.0000
  C   C37       1.0  0.6585669604162852  0.4127590386635549  0.16882027760872287  1.0000
  C   C38       1.0  0.46254722534135684  0.29980306911009524  0.08378523605309462  1.0000
  C   C39       1.0  0.42862564493095484  0.3952094587559303  0.9855313149926723  1.0000
  C   C40       1.0  0.4007471702285242  0.4736613327313177  0.9047397828183343  1.0000
  H   H18       1.0  0.05442390671118669  0.403939437265483  0.41935008896013226  1.0000
  H   H19       1.0  0.7970386003582323  0.35663818593834185  0.29762676686717815  1.0000
  H   H20       1.0  0.7971548165522105  0.3598106315020646  0.880192393236868  1.0000
  H   H21       1.0  0.005499774434831295  0.3957963925830752  0.09104514501682659  1.0000
  H   H22       1.0  0.9363932645923244  0.38316529715963443  0.6438803478758692  1.0000
  H   H23       1.0  0.7046241766010651  0.199159689216176  0.9434827268137549  1.0000
  H   H24       1.0  0.5674223337357507  0.1762131994774654  0.9410688022213671  1.0000
  H   H25       1.0  0.5459224892973286  0.4554670356920576  0.2300855656529579  1.0000
  H   H26       1.0  0.6829492093842264  0.4808425723492942  0.2313468865162951  1.0000
  H   H27       1.0  0.4474673235421822  0.20029286631247722  0.059962337833920465  1.0000
  H   H28       1.0  0.4385281419917659  0.31640900907705083  0.18040859991312308  1.0000
  H   H29       1.0  0.37629340602592287  0.5425383172199616  0.8338127147273364  1.0000
  Zn  Zn1       1.0  0.823397317491414  0.38186316354191874  0.5879648630068903  1.0000
  Zn  Zn2       1.0  0.988769987092584  0.37386486910665817  0.5920796000454591  1.0000
  C   C41       1.0  0.9061390212960059  0.3726219385219047  0.8272333103371816  1.0000
  C   C42       1.0  0.9060300894874626  0.3831076453382638  0.3528113251637339  1.0000
  C   C43       1.0  0.9061264621192083  0.6150536317157724  0.5848529233146829  1.0000
  C   C44       1.0  0.9060425919588018  0.14067439457952613  0.5951917799864723  1.0000
  O   O2        1.0  0.9687983237292374  0.3817893548059297  0.4027619476411348  1.0000
  O   O3        1.0  0.9688848165498153  0.3678687290495093  0.7804053041682635  1.0000
  O   O4        1.0  0.9688738291567089  0.5636354277970306  0.58468140574946  1.0000
  O   O5        1.0  0.9688092546712526  0.18602266810594448  0.5984857472749638  1.0000
  O   O6        1.0  0.8433579934791683  0.5697053672734735  0.5815587143663956  1.0000
  O   O7        1.0  0.843368981144156  0.3739402288216629  0.7772825435739701  1.0000
  O   O8        1.0  0.8432824880071784  0.38786080977283666  0.3996376255427374  1.0000
  O   O9        1.0  0.8432934189667077  0.19209411375615604  0.595361522550552  1.0000
