data_image0
_chemical_formula_structural       NC9NC3OCH8C12NH11C12NCOH11Zn2C4O8
_chemical_formula_sum              "N4 C42 O10 H30 Zn2"
_cell_length_a       17.728193572023454
_cell_length_b       10.299770795358612
_cell_length_c       10.299148425239203
_cell_angle_alpha    85.53227456119625
_cell_angle_beta     90.68912747422073
_cell_angle_gamma    88.47103896228896

_space_group_name_H-M_alt    "P 1"
_space_group_IT_number       1

loop_
  _space_group_symop_operation_xyz
  'x, y, z'

loop_
  _atom_site_type_symbol
  _atom_site_label
  _atom_site_symmetry_multiplicity
  _atom_site_fract_x
  _atom_site_fract_y
  _atom_site_fract_z
  _atom_site_occupancy
  N   N1        1.0  0.7110602336641514  0.3874928240641915  0.5849919724860193  1.0000
  C   C1        1.0  0.6504363823259862  0.35005988101762986  0.5980005498212715  1.0000
  C   C2        1.0  0.5749680418471321  0.30352572943736034  0.6141908875871642  1.0000
  C   C3        1.0  0.5630355205399679  0.17548542226709807  0.6236200447387628  1.0000
  C   C4        1.0  0.48631016573434377  0.12602833129570779  0.6385749669854619  1.0000
  C   C5        1.0  0.42818055147589934  0.20868976802489203  0.6560409285408089  1.0000
  C   C6        1.0  0.3501170360841351  0.16363331693206473  0.6777796419089419  1.0000
  C   C7        1.0  0.2888028306176502  0.24911572551688255  0.642309943779803  1.0000
  C   C8        1.0  0.2145149605127649  0.20980507224792655  0.6624619746344524  1.0000
  C   C9        1.0  0.15222295759334092  0.29782512694836205  0.6249176119988642  1.0000
  N   N2        1.0  0.10215359400227371  0.3685847227584924  0.5947354934468911  1.0000
  C   C10       1.0  0.200909646307924  0.0848917170279071  0.7191378760228981  1.0000
  C   C11       1.0  0.2613250573107231  0.9997262637685516  0.7560162214696493  1.0000
  C   C12       1.0  0.335509149056426  0.03854724238417684  0.7359938151441439  1.0000
  O   O1        1.0  0.4415714260626899  0.3424742491442696  0.6547370390117044  1.0000
  C   C13       1.0  0.509317746383595  0.3998743151620401  0.6061203674182669  1.0000
  H   H1        1.0  0.609945127495717  0.10602645617596718  0.6215230330442867  1.0000
  H   H2        1.0  0.4786314825420693  0.02238125044698669  0.6365986981478617  1.0000
  H   H3        1.0  0.2987251841097964  0.34595859548721064  0.5978740782340595  1.0000
  H   H4        1.0  0.1436846933137506  0.05359702621594886  0.7352811556753165  1.0000
  H   H5        1.0  0.25066610575972653  0.9035420575767869  0.8009132162471606  1.0000
  H   H6        1.0  0.38101819628779027  0.9713038979050347  0.7684205618889224  1.0000
  H   H7        1.0  0.4998726926644806  0.43584698815260725  0.5025843022254695  1.0000
  H   H8        1.0  0.5222130547609065  0.48423532021789195  0.6627016053638981  1.0000
  C   C14       1.0  0.906542150094836  0.9966733558015515  0.5899017169988969  1.0000
  C   C15       1.0  0.8846587572800557  0.006961866999207089  0.45793681495454197  1.0000
  C   C16       1.0  0.8736394924228935  0.8950356470927726  0.3910357856142852  1.0000
  C   C17       1.0  0.8847968926775664  0.7716736040049298  0.45787169869679145  1.0000
  C   C18       1.0  0.9066789197684293  0.7593938667907861  0.5898371173024526  1.0000
  C   C19       1.0  0.917429375798771  0.8724547236352992  0.6551130217401602  1.0000
  C   C20       1.0  0.8504884633342557  0.9069736839843888  0.251424586866567  1.0000
  C   C21       1.0  0.7955459497035444  0.0008268705722196401  0.20486541348573573  1.0000
  C   C22       1.0  0.7737885588693596  0.011932161649240491  0.07346309841933163  1.0000
  C   C23       1.0  0.8065618882095271  0.9296244936337219  0.986529411357485  1.0000
  C   C24       1.0  0.8613234476447886  0.8359785116583492  0.03219345465177659  1.0000
  C   C25       1.0  0.8831412951696849  0.8246142845277197  0.16356730077091752  1.0000
  N   N3        1.0  0.7842747427232747  0.941116706414786  0.8521291814148664  1.0000
  H   H9        1.0  0.9148486392316095  0.32020675957457057  0.6402027966181818  1.0000
  H   H10       1.0  0.8771329059252418  0.10225261697646837  0.4063934411497252  1.0000
  H   H11       1.0  0.8753766179539922  0.6851213009377651  0.407221297864929  1.0000
  H   H12       1.0  0.9343108484671591  0.8637495947984929  0.7569180845302477  1.0000
  H   H13       1.0  0.9150497980158319  0.4272606967215614  0.6401081774249424  1.0000
  H   H14       1.0  0.7686916558185297  0.06450844158676539  0.2704042954360535  1.0000
  H   H15       1.0  0.7312475052444063  0.08448388711736099  0.0394893491181163  1.0000
  H   H16       1.0  0.8872445719495861  0.771996791398546  0.9659420022237089  1.0000
  H   H17       1.0  0.9262610814031959  0.7525454561786022  0.1961158238272558  1.0000
  H   H18       1.0  0.8083844674904899  0.880183580229732  0.7865855388150926  1.0000
  H   H19       1.0  0.743500164134917  0.010643439584636871  0.8171762009437806  1.0000
  C   C26       1.0  0.9066673257947986  0.3781867006444575  0.20847462904661485  1.0000
  C   C27       1.0  0.9832387234858133  0.4100435890781138  0.20640969496398798  1.0000
  C   C28       1.0  0.021942116909854592  0.42598729202819685  0.08822762485450442  1.0000
  C   C29       1.0  0.9830795771442551  0.4097111332094061  0.9711486053779024  1.0000
  C   C30       1.0  0.9065537401017488  0.37788051570796766  0.9712642158468978  1.0000
  C   C31       1.0  0.868796567649827  0.36229593406156635  0.09044420878895632  1.0000
  C   C32       1.0  0.10289986298716092  0.4596659969420709  0.08713470061592776  1.0000
  C   C33       1.0  0.15359827357252986  0.39984401316304763  0.004804848508955795  1.0000
  C   C34       1.0  0.22974298240307633  0.4316759800348111  0.003924603049136444  1.0000
  C   C35       1.0  0.25697188272717764  0.5226324113529099  0.08610373619997036  1.0000
  C   C36       1.0  0.20619891133209367  0.5843042133550875  0.16686316957512837  1.0000
  C   C37       1.0  0.13002011815670866  0.5525805627861824  0.16783939761109234  1.0000
  N   N4        1.0  0.33535045007163955  0.5550499921489251  0.08151779948717053  1.0000
  C   C38       1.0  0.37876439057974  0.5896240631041791  0.19132622562650825  1.0000
  O   O2        1.0  0.35322788678861694  0.5766961416382987  0.3050514584931845  1.0000
  H   H20       1.0  0.762262511888531  0.3172887117101244  0.4197280163885291  1.0000
  H   H21       1.0  0.013181473793489884  0.4207913574986881  0.2970809929324416  1.0000
  H   H22       1.0  0.01236193350407655  0.42368709013142847  0.8796438639646404  1.0000
  H   H23       1.0  0.809771158618465  0.33774060514763904  0.09124849989070638  1.0000
  H   H24       1.0  0.8771220547641382  0.3656012012685863  0.6438356031067669  1.0000
  H   H25       1.0  0.13455913412824305  0.32725480473910507  0.9421642212122281  1.0000
  H   H26       1.0  0.26786506388384224  0.38429501276685785  0.9399235036386133  1.0000
  H   H27       1.0  0.22481020077498126  0.6590786421772272  0.227086336104243  1.0000
  H   H28       1.0  0.09198756019469201  0.6026234520629772  0.22994991575078538  1.0000
  H   H29       1.0  0.36437276655118933  0.5447075508999504  0.9950585708512572  1.0000
  H   H30       1.0  0.43543374253973366  0.6239240112551141  0.17691088869640148  1.0000
  Zn  Zn1       1.0  0.8239213391001314  0.3820328811333622  0.5878112426817452  1.0000
  Zn  Zn2       1.0  0.9892925106764755  0.37403405780091914  0.5919268625390504  1.0000
  C   C39       1.0  0.9065726055024759  0.3727648418876326  0.8270810765995944  1.0000
  C   C40       1.0  0.9066430503970453  0.38330364825238217  0.3526572009000679  1.0000
  C   C41       1.0  0.9066499581341053  0.6152257128688927  0.58467374704627  1.0000
  C   C42       1.0  0.9065656410456844  0.1408412196852118  0.5950645984244034  1.0000
  O   O3        1.0  0.9693924001099177  0.3819797651581911  0.4026080459047674  1.0000
  O   O4        1.0  0.9693361484675876  0.3680168235896788  0.7802535180491235  1.0000
  O   O5        1.0  0.969397765493718  0.5638070836213323  0.5845078631935814  1.0000
  O   O6        1.0  0.969330726669974  0.1861895171852157  0.5983536019738609  1.0000
  O   O7        1.0  0.8438830666735694  0.5698774244800882  0.581384501835644  1.0000
  O   O8        1.0  0.843821449934107  0.3740887247653668  0.7771300873088844  1.0000
  O   O9        1.0  0.843877701851014  0.3880516217027181  0.3994830536628926  1.0000
  O   O10       1.0  0.8438160283918199  0.19226136440208674  0.5952287071071445  1.0000
