data_image0
_chemical_formula_structural       NC9NC3OCH8C12OCH12C13F3H9Zn2C4O8
_chemical_formula_sum              "N2 C43 O10 H29 F3 Zn2"
_cell_length_a       17.728193572023454
_cell_length_b       10.29979075500242
_cell_length_c       10.2985328690268
_cell_angle_alpha    85.57397699723032
_cell_angle_beta     90.71056303588647
_cell_angle_gamma    88.43583692371088

_space_group_name_H-M_alt    "P 1"
_space_group_IT_number       1

loop_
  _space_group_symop_operation_xyz
  'x, y, z'

loop_
  _atom_site_type_symbol
  _atom_site_label
  _atom_site_symmetry_multiplicity
  _atom_site_fract_x
  _atom_site_fract_y
  _atom_site_fract_z
  _atom_site_occupancy
  N   N1        1.0  0.7102738214485483  0.38649738559799207  0.584970095413669  1.0000
  C   C1        1.0  0.6496660131967965  0.34907321856677687  0.5979790519120678  1.0000
  C   C2        1.0  0.5742176203115801  0.302549990351223  0.6141698611872464  1.0000
  C   C3        1.0  0.5623327662166457  0.1745145096175913  0.6236000211942159  1.0000
  C   C4        1.0  0.4856281489580255  0.12506741003079336  0.6385554256779671  1.0000
  C   C5        1.0  0.4274726030108237  0.2077426515760632  0.656020937325396  1.0000
  C   C6        1.0  0.3494296480138329  0.16270113227746164  0.6777601580717689  1.0000
  C   C7        1.0  0.2880776216252702  0.24815935959833868  0.6422895457490598  1.0000
  C   C8        1.0  0.21380793366752573  0.2088625856432449  0.66244202922105  1.0000
  C   C9        1.0  0.151476777040245  0.29685700723758845  0.6248967166846806  1.0000
  N   N2        1.0  0.1013759376434034  0.36759599645031615  0.5947138345037706  1.0000
  C   C10       1.0  0.2002588821953698  0.08398804648901348  0.7191193071288748  1.0000
  C   C11       1.0  0.26071229049047123  0.9988477912868983  0.7559985762957446  1.0000
  C   C12       1.0  0.3348784016200048  0.03765497626307557  0.7359757219728493  1.0000
  O   O1        1.0  0.4408154291583313  0.34152823082030626  0.6547160716388267  1.0000
  C   C13       1.0  0.5085312554516476  0.3988942436585825  0.6060985782049908  1.0000
  H   H1        1.0  0.6092667489939438  0.10505298057379875  0.6215034930432708  1.0000
  H   H2        1.0  0.47798607650835706  0.02141733297565951  0.6365798880554634  1.0000
  H   H3        1.0  0.2979562537344009  0.3449717797992895  0.5978526088540139  1.0000
  H   H4        1.0  0.1430484244302231  0.05270447702483416  0.7352629479469115  1.0000
  H   H5        1.0  0.2500969198764806  0.9026943761579904  0.8008966415376151  1.0000
  H   H6        1.0  0.3804181302647993  0.9704339044041825  0.7684032258017319  1.0000
  H   H7        1.0  0.4990520708571601  0.4347930834613343  0.5025613851960942  1.0000
  H   H8        1.0  0.5214080658948118  0.48329717980159037  0.6626796820122105  1.0000
  C   C14       1.0  0.9058963262146261  0.995675500198642  0.5898827007689975  1.0000
  C   C15       1.0  0.8840588154757643  0.9856046438574249  0.7207867425452519  1.0000
  C   C16       1.0  0.8729336943782948  0.8633682633322347  0.7870821702092374  1.0000
  C   C17       1.0  0.8839232325012665  0.7503288832114231  0.7207175745879166  1.0000
  C   C18       1.0  0.9057607096871816  0.7584075261229716  0.5898125993898731  1.0000
  C   C19       1.0  0.9166267356724757  0.8815280287565496  0.5251288568402501  1.0000
  C   C20       1.0  0.8498354427540875  0.8537677494673369  0.9255726674408011  1.0000
  C   C21       1.0  0.7947747802644967  0.7655761865897025  0.9692699034091083  1.0000
  C   C22       1.0  0.7731032693512948  0.7568107859857635  0.09947900544302979  1.0000
  C   C23       1.0  0.8060043139315475  0.8355925002039776  0.1876535179461316  1.0000
  C   C24       1.0  0.8612659877879152  0.9243840008089332  0.14583313834555756  1.0000
  C   C25       1.0  0.882703518031472  0.9327993620906831  0.015091467169925266  1.0000
  O   O2        1.0  0.8961536280054276  0.005423272997546746  0.23057713722029094  1.0000
  C   C26       1.0  0.8799822178677608  0.007222836606719074  0.3655206711610356  1.0000
  H   H9        1.0  0.9142503808016204  0.32696281638511326  0.5400247580743984  1.0000
  H   H10       1.0  0.8746507227906247  0.07310070894821807  0.770984959709762  1.0000
  H   H11       1.0  0.8764030028250657  0.6558075262004274  0.7719020098731031  1.0000
  H   H12       1.0  0.9334740333674778  0.8885288443902939  0.4241419337514618  1.0000
  H   H13       1.0  0.914044234342374  0.4340362039849274  0.539915261578225  1.0000
  H   H14       1.0  0.7677788561261342  0.7046321075128813  0.9023827634853443  1.0000
  H   H15       1.0  0.7304842210596364  0.6889104937190197  0.13209857972456207  1.0000
  H   H16       1.0  0.7881258934185486  0.8267370402906085  0.2878823662171376  1.0000
  H   H17       1.0  0.925931551122519  0.0002444637763217017  0.9840000377944065  1.0000
  H   H18       1.0  0.8930211782822688  0.9100787201682112  0.4164719571525488  1.0000
  H   H19       1.0  0.9155960905928194  0.08015326307082726  0.4086254711917996  1.0000
  H   H20       1.0  0.8197391501713238  0.035049255435648075  0.37845638910574486  1.0000
  C   C27       1.0  0.90580683828395  0.3769206305128998  0.2084496615375484  1.0000
  C   C28       1.0  0.9814859193523272  0.33237195576446843  0.21255178183565793  1.0000
  C   C29       1.0  0.019833055535725563  0.3099174756406986  0.09745949062913462  1.0000
  C   C30       1.0  0.9815304256591534  0.3326254207084771  0.9772521917793404  1.0000
  C   C31       1.0  0.9058501707379714  0.3771624473958213  0.97124569403559  1.0000
  C   C32       1.0  0.8684716848665676  0.3990204652596432  0.0873538631052393  1.0000
  C   C33       1.0  0.09984386373881748  0.2628310911294671  0.10273084559164936  1.0000
  C   C34       1.0  0.15194246417509727  0.31491350598046  0.012482370879036697  1.0000
  C   C35       1.0  0.22724334321596218  0.2707010266828993  0.01746489941288165  1.0000
  C   C36       1.0  0.25181616499095405  0.17211772797202518  0.11155711660685541  1.0000
  C   C37       1.0  0.20015407533630203  0.1218332558317774  0.20339363426174595  1.0000
  C   C38       1.0  0.12485810283822385  0.16607855285668593  0.19852214605845409  1.0000
  C   C39       1.0  0.33364358816348116  0.1278767288813718  0.11988277714217688  1.0000
  F   F1        1.0  0.3723312357596973  0.2053212942971887  0.2003243726043884  1.0000
  F   F2        1.0  0.36578039933406203  0.1374967329612462  0.997825233343161  1.0000
  F   F3        1.0  0.3406552104275511  0.9994172154843234  0.1699547517099187  1.0000
  H   H21       1.0  0.7629452135660235  0.4619126367255204  0.40796361668492653  1.0000
  H   H22       1.0  0.011041539178791027  0.3167840850465451  0.3053683594650314  1.0000
  H   H23       1.0  0.010515968621839011  0.31384313359362936  0.8883451659390809  1.0000
  H   H24       1.0  0.8101440753524273  0.433349772458951  0.0834591480864062  1.0000
  H   H25       1.0  0.7627037841969784  0.46058468590245627  0.7526234474860165  1.0000
  H   H26       1.0  0.13473204703659913  0.3915092424694768  0.9393176884093393  1.0000
  H   H27       1.0  0.2663600394983672  0.31403670191277344  0.9479501982690528  1.0000
  H   H28       1.0  0.21796731140180636  0.048099911129728445  0.2790159604097595  1.0000
  H   H29       1.0  0.0860130464821458  0.12368377297326427  0.26906320834383113  1.0000
  Zn  Zn1       1.0  0.8231374564179729  0.3810393849865221  0.5877894286447392  1.0000
  Zn  Zn2       1.0  0.9885123307597797  0.3730433966553053  0.5919051407263425  1.0000
  C   C40       1.0  0.9058412184423698  0.3719430962631063  0.8270613360119805  1.0000
  C   C41       1.0  0.9058103743397069  0.38214123673181377  0.35263340562822143  1.0000
  C   C42       1.0  0.9057821469313115  0.6142335095681815  0.5846502242674556  1.0000
  C   C43       1.0  0.9058693897012895  0.13984926586596802  0.5950445853555648  1.0000
  O   O3        1.0  0.968570465034202  0.3808532181967641  0.4025846790859613  1.0000
  O   O4        1.0  0.9685968310121765  0.36716136482291484  0.7802334190085101  1.0000
  O   O5        1.0  0.9685482840766294  0.5628139790809854  0.5844847099965989  1.0000
  O   O6        1.0  0.9686189555313224  0.18520061592658688  0.5983332893105087  1.0000
  O   O7        1.0  0.8430307752121012  0.5688821684452905  0.5813612786492506  1.0000
  O   O8        1.0  0.8430793218627952  0.37323111447804025  0.7771099182670216  1.0000
  O   O9        1.0  0.8430529558543468  0.3869229220982666  0.3994596168300637  1.0000
  O   O10       1.0  0.8431014463555649  0.19127031057024602  0.5952083244306536  1.0000
