data_image0
_chemical_formula_structural       NC9NC3OH6C6NH5C8H9Zn2C4O8
_chemical_formula_sum              "N3 C30 O9 H20 Zn2"
_cell_length_a       15.78231758774541
_cell_length_b       9.274771166103584
_cell_length_c       9.27565708386181
_cell_angle_alpha    85.75447622105526
_cell_angle_beta     89.58874472212383
_cell_angle_gamma    90.23039320205511

_space_group_name_H-M_alt    "P 1"
_space_group_IT_number       1

loop_
  _space_group_symop_operation_xyz
  'x, y, z'

loop_
  _atom_site_type_symbol
  _atom_site_label
  _atom_site_symmetry_multiplicity
  _atom_site_fract_x
  _atom_site_fract_y
  _atom_site_fract_z
  _atom_site_occupancy
  N   N1        1.0  0.8155548568424499  0.5613919730939675  0.40979423310469537  1.0000
  C   C1        1.0  0.7663277951391094  0.4703877657651418  0.43668773300227515  1.0000
  C   C2        1.0  0.7052107717143883  0.35742942591773486  0.47006949232485473  1.0000
  C   C3        1.0  0.7237901216247673  0.21553509037298377  0.5119142190594068  1.0000
  C   C4        1.0  0.6465341433051842  0.1467679705299767  0.5322765611849851  1.0000
  C   C5        1.0  0.5855549781686554  0.25178625645336816  0.5013524941446337  1.0000
  C   C6        1.0  0.4923152981303913  0.2323705094272752  0.5071717392417316  1.0000
  C   C7        1.0  0.43947971080041626  0.3514209483578919  0.4719322528341867  1.0000
  C   C8        1.0  0.3511512554964303  0.335500542555355  0.4767118424593964  1.0000
  C   C9        1.0  0.29764567993048646  0.4580147682276196  0.440437891627737  1.0000
  N   N2        1.0  0.2546399784153449  0.5565003917614808  0.4112768860033167  1.0000
  C   C10       1.0  0.3149757351911416  0.2003525196578655  0.5167856228614767  1.0000
  C   C11       1.0  0.3668822459473451  0.08154823927969333  0.5519570888657348  1.0000
  C   C12       1.0  0.4550216954529833  0.09703127866585357  0.5473073904694696  1.0000
  O   O1        1.0  0.6229638156161561  0.37624601447531697  0.4645952783838663  1.0000
  H   H1        1.0  0.7858855076694924  0.1676829369177217  0.5259693204641155  1.0000
  H   H2        1.0  0.6369387084308022  0.03369616814561005  0.5656384250182449  1.0000
  H   H3        1.0  0.4668889442487495  0.4565900466666492  0.4407425051902769  1.0000
  H   H4        1.0  0.24675615440118046  0.18686875103466954  0.5208313308956146  1.0000
  H   H5        1.0  0.33874818937165646  0.9770981339490509  0.5829340773861571  1.0000
  H   H6        1.0  0.4933891527258447  0.0029299695669244936  0.5751748255770985  1.0000
  C   C13       1.0  0.0324963259693869  0.1353826552757846  0.4113124980133705  1.0000
  C   C14       1.0  0.013653195336847048  0.21823913556190508  0.28233837542385376  1.0000
  C   C15       1.0  0.0027246735405579425  0.152645105977806  0.1525730964090786  1.0000
  C   C16       1.0  0.010688460786059778  0.002811748505770596  0.15084247128496386  1.0000
  C   C17       1.0  0.02797385222781188  0.918644097318177  0.2780404806348913  1.0000
  C   C18       1.0  0.037706474439098886  0.9824986432132196  0.40977114582081664  1.0000
  N   N3        1.0  0.9844092675771765  0.23858792735941559  0.022183954707625474  1.0000
  H   H7        1.0  0.1262488301386495  0.21561911894484356  0.7271127100381618  1.0000
  H   H8        1.0  0.002681066140186372  0.9509010100208828  0.05100253516912856  1.0000
  H   H9        1.0  0.09740768190950244  0.6858698091348417  0.6246133154798366  1.0000
  H   H10       1.0  0.9785720473166976  0.3507266166849705  0.02211742378527615  1.0000
  H   H11       1.0  0.9764696229229166  0.19070581957782728  0.9247149224464444  1.0000
  C   C19       1.0  0.03724617176946299  0.5567422456725564  0.9872331708953284  1.0000
  C   C20       1.0  0.08181086182049802  0.6662045919327368  0.05212168148557916  1.0000
  C   C21       1.0  0.11893234163726113  0.781923646034685  0.968294731616259  1.0000
  C   C22       1.0  0.11274053166705889  0.7871823090847483  0.817625387440625  1.0000
  C   C23       1.0  0.07000975831914524  0.6783453633628771  0.7512892770121193  1.0000
  C   C24       1.0  0.032956611917045256  0.5611389992615403  0.8338504700557184  1.0000
  C   C25       1.0  0.1674492738680382  0.8970563148990957  0.03944558987357305  1.0000
  C   C26       1.0  0.2602590703262846  0.8548612854842468  0.057679333964525625  1.0000
  H   H12       1.0  0.9978002174752482  0.3270639926539105  0.2853504966353628  1.0000
  H   H13       1.0  0.08617506167447386  0.6634816800421841  0.16886636500546337  1.0000
  H   H14       1.0  0.1418459841330486  0.8750211239453277  0.7511751949365033  1.0000
  H   H15       1.0  0.9318985424843413  0.3960191775366706  0.5659807679021123  1.0000
  H   H16       1.0  0.16345330045553366  0.0018197166694542252  0.9733990822347135  1.0000
  H   H17       1.0  0.13936988881996315  0.9137058246813948  0.14719720756925894  1.0000
  H   H18       1.0  0.2656594762610103  0.7521858159794492  0.12663458942806805  1.0000
  H   H19       1.0  0.28999324900127926  0.8412543111675455  0.9506293527405352  1.0000
  H   H20       1.0  0.2948635545730802  0.9410655476227042  0.11020344457586463  1.0000
  Zn  Zn1       1.0  0.9422652686838516  0.5599765587972392  0.41023041924901904  1.0000
  Zn  Zn2       1.0  0.12792940597209268  0.557904095061158  0.410852505091188  1.0000
  C   C27       1.0  0.03373020153650439  0.5545618587469519  0.673832098454616  1.0000
  C   C28       1.0  0.036466511042474004  0.5633205931312071  0.14725097085142358  1.0000
  C   C29       1.0  0.036746378867684254  0.8223458752260329  0.40431816141081806  1.0000
  C   C30       1.0  0.0334502593094026  0.2955348448241959  0.41676498768904185  1.0000
  O   O2        1.0  0.10666338358206318  0.5647355648469072  0.2011904960822131  1.0000
  O   O3        1.0  0.10444810863304466  0.5515728447352297  0.6203643090053964  1.0000
  O   O4        1.0  0.10688275256308505  0.7678118430196557  0.40272989207530696  1.0000
  O   O5        1.0  0.104228676908515  0.34849657702645154  0.4188248046981442  1.0000
  O   O6        1.0  0.9659659343894197  0.7693840775407063  0.4022581194221902  1.0000
  O   O7        1.0  0.9635313015032607  0.5531468117929716  0.6198924563385872  1.0000
  O   O8        1.0  0.9657465849806387  0.5663094726403142  0.20071691039674966  1.0000
  O   O9        1.0  0.9633118776925884  0.3500704750646497  0.41835132710696754  1.0000
