data_image0
_chemical_formula_structural       NC5NC3BrH3C6BrH5C7OH5Zn2C4O8
_chemical_formula_sum              "N2 C25 Br2 H13 O9 Zn2"
_cell_length_a       13.839083392302014
_cell_length_b       9.276564384272257
_cell_length_c       9.274074313596557
_cell_angle_alpha    86.07032153844699
_cell_angle_beta     90.2343589418284
_cell_angle_gamma    90.61189963838827

_space_group_name_H-M_alt    "P 1"
_space_group_IT_number       1

loop_
  _space_group_symop_operation_xyz
  'x, y, z'

loop_
  _atom_site_type_symbol
  _atom_site_label
  _atom_site_symmetry_multiplicity
  _atom_site_fract_x
  _atom_site_fract_y
  _atom_site_fract_z
  _atom_site_occupancy
  N   N1        1.0  0.9162672798423468  0.5632364952635334  0.40886441393793294  1.0000
  C   C1        1.0  0.843835361816582  0.4996139567478941  0.4113822479969902  1.0000
  C   C2        1.0  0.753591774868679  0.4204455198447259  0.4145151464181034  1.0000
  C   C3        1.0  0.6665493279005904  0.4966227473213187  0.41150081209131617  1.0000
  C   C4        1.0  0.5779985401575104  0.4219178019436642  0.414456828186414  1.0000
  C   C5        1.0  0.48876953388001476  0.500445721164732  0.4113493160507862  1.0000
  N   N2        1.0  0.4170410182423466  0.5635760099801261  0.40885092288459646  1.0000
  C   C6        1.0  0.5764222651727613  0.27072421978302397  0.4204395490875692  1.0000
  C   C7        1.0  0.6630188479502552  0.19442575996586722  0.4234585892261049  1.0000
  C   C8        1.0  0.7517608460940715  0.2684167945156195  0.420530842718734  1.0000
  Br  Br1       1.0  0.8684210597062635  0.15835931810085607  0.42488589919345743  1.0000
  H   H1        1.0  0.667715716586779  0.6137849754771443  0.4068645103395596  1.0000
  H   H2        1.0  0.5083307437807318  0.21188919360006994  0.42276737976057843  1.0000
  H   H3        1.0  0.6610909423649599  0.07751266008294035  0.42808465552855823  1.0000
  C   C9        1.0  0.16374852525495956  0.1399269213227161  0.40922631824806777  1.0000
  C   C10       1.0  0.15099654969401333  0.22212487026974892  0.2774983942646194  1.0000
  C   C11       1.0  0.1472407920144856  0.15585283482403467  0.14700063613673997  1.0000
  C   C12       1.0  0.15620860008275453  0.006439511898172821  0.1457529176066814  1.0000
  C   C13       1.0  0.16725270897270628  0.9225275283502393  0.27548893369300975  1.0000
  C   C14       1.0  0.16956897961592257  0.9868745580666404  0.40850147027482486  1.0000
  Br  Br2       1.0  0.15177954615882583  0.9163215002922059  0.9666871733241198  1.0000
  H   H4        1.0  0.13606958643438727  0.4047599878972001  0.6435437910923829  1.0000
  H   H5        1.0  0.1462210877603236  0.3387538118212239  0.27503110440811995  1.0000
  H   H6        1.0  0.1382763507365492  0.2210817986675626  0.04660780161569877  1.0000
  H   H7        1.0  0.17171487869334623  0.8062600773988006  0.2723814542114755  1.0000
  H   H8        1.0  0.22350252060018283  0.6911813004563316  0.632974074892801  1.0000
  C   C15       1.0  0.16547323243397066  0.5592465644009768  0.9856263266806078  1.0000
  C   C16       1.0  0.08151444813093622  0.6017640114824818  0.05548100971749759  1.0000
  C   C17       1.0  0.0023936011128162793  0.65587415450747  0.9762545621632056  1.0000
  C   C18       1.0  0.0053819490477622365  0.6689062795371645  0.824963331617552  1.0000
  C   C19       1.0  0.08802409227420326  0.6246469186229857  0.753970287654476  1.0000
  C   C20       1.0  0.16784423511149746  0.5675548992360568  0.8321015616768461  1.0000
  C   C21       1.0  0.9226628147266197  0.7269796818286725  0.7395251122403179  1.0000
  O   O1        1.0  0.8472181976749094  0.7671084021426036  0.8001990394709102  1.0000
  H   H9        1.0  0.40131980823793306  0.5226657777917818  0.0924399924537267  1.0000
  H   H10       1.0  0.9392196099980361  0.6888437371130463  0.03362966774110276  1.0000
  H   H11       1.0  0.0891918069672384  0.6316362227788597  0.6368076139169205  1.0000
  H   H12       1.0  0.3263410449443352  0.5376898017272376  0.5546571209820423  1.0000
  H   H13       1.0  0.9261542094229334  0.7357352995858357  0.6226480117567026  1.0000
  Zn  Zn1       1.0  0.06077976314868838  0.56333068721711  0.4088688534612419  1.0000
  Zn  Zn2       1.0  0.2725284789782907  0.5634701141875245  0.4088583214613486  1.0000
  C   C22       1.0  0.16735445377886426  0.5602395281148134  0.6721044913157559  1.0000
  C   C23       1.0  0.16595611353821305  0.5665630957555197  0.14562282339507515  1.0000
  C   C24       1.0  0.1684477253180552  0.8267270735345427  0.4028951920263188  1.0000
  C   C25       1.0  0.16486275805239892  0.30007381845243625  0.4148322010108292  1.0000
  O   O2        1.0  0.2464756637317742  0.5690652109758885  0.19931511782342715  1.0000
  O   O3        1.0  0.24754727072971286  0.5578421427639223  0.6184037893853718  1.0000
  O   O4        1.0  0.24842902226369246  0.7730342198815465  0.4010153742793683  1.0000
  O   O5        1.0  0.24559383971049842  0.353873143066042  0.41670342485922807  1.0000
  O   O6        1.0  0.08771433015702604  0.7729276582925089  0.4010237500593745  1.0000
  O   O7        1.0  0.08683259031021408  0.5577373130121539  0.6184120868350729  1.0000
  O   O8        1.0  0.0857609781774411  0.5689603139629846  0.19932168249670013  1.0000
  O   O9        1.0  0.08487915438400637  0.35376823679927627  0.4167100975987159  1.0000
