data_image0
_chemical_formula_structural       NC5NC3OH4C6NH7C7ONH5Zn2C4O8
_chemical_formula_sum              "N4 C25 O10 H16 Zn2"
_cell_length_a       13.84702359539666
_cell_length_b       9.274771166103582
_cell_length_c       9.273042158839658
_cell_angle_alpha    86.05644510922068
_cell_angle_beta     90.0789287002439
_cell_angle_gamma    90.59789355945463

_space_group_name_H-M_alt    "P 1"
_space_group_IT_number       1

loop_
  _space_group_symop_operation_xyz
  'x, y, z'

loop_
  _atom_site_type_symbol
  _atom_site_label
  _atom_site_symmetry_multiplicity
  _atom_site_fract_x
  _atom_site_fract_y
  _atom_site_fract_z
  _atom_site_occupancy
  N   N1        1.0  0.9185426901894957  0.561928391837526  0.4069175672792995  1.0000
  C   C1        1.0  0.8464113756051921  0.5539210500333558  0.4699873397841236  1.0000
  C   C2        1.0  0.7565808459605927  0.5439502179095874  0.548522495556153  1.0000
  C   C3        1.0  0.6689813370714269  0.5535826673275701  0.4726518977613818  1.0000
  C   C4        1.0  0.5811351219717787  0.5440621310542052  0.5476405866210508  1.0000
  C   C5        1.0  0.49126825592636164  0.5539794942082565  0.46952669286901627  1.0000
  N   N2        1.0  0.41902692652866635  0.5619522951980853  0.4067293496953719  1.0000
  C   C6        1.0  0.5808831082202792  0.5248804044072173  0.6987252844217053  1.0000
  C   C7        1.0  0.6681023997058427  0.5152389478261967  0.7746639245199973  1.0000
  C   C8        1.0  0.7562641435821764  0.5246981440855991  0.7001599918935213  1.0000
  O   O1        1.0  0.8432038317170154  0.5150402469460543  0.7762300551105533  1.0000
  H   H1        1.0  0.6691811566974024  0.5684431366621463  0.3556044740466757  1.0000
  H   H2        1.0  0.5133403381927776  0.517387231942267  0.757744833560084  1.0000
  H   H3        1.0  0.6671241801063446  0.5004079612490286  0.8914799022738756  1.0000
  H   H4        1.0  0.8447580533892656  0.5011598142289854  0.8855581021888113  1.0000
  C   C9        1.0  0.16582545184392128  0.13835192162500043  0.4076101734682018  1.0000
  C   C10       1.0  0.14345280852739073  0.22030202506237637  0.27872611325126306  1.0000
  C   C11       1.0  0.13009583131349256  0.15388580860046464  0.14902089490483617  1.0000
  C   C12       1.0  0.13916103187970297  0.004132122599989068  0.14726021473792783  1.0000
  C   C13       1.0  0.15974582160484574  0.9208438565282978  0.27437434169031766  1.0000
  C   C14       1.0  0.171753338740954  0.9855178259235198  0.40604921662487414  1.0000
  N   N3        1.0  0.10831487447643151  0.23892051768182718  0.018720009131101722  1.0000
  H   H5        1.0  0.2748771210597561  0.22133985966548206  0.7230086956551778  1.0000
  H   H6        1.0  0.13858285332208942  0.33688866913413884  0.27817428885203177  1.0000
  H   H7        1.0  0.12934125935849394  0.9515932833674476  0.04746496328445926  1.0000
  H   H8        1.0  0.1639969732901947  0.8046365663953492  0.2702448368875805  1.0000
  H   H9        1.0  0.24129235578838326  0.690715252673691  0.6206336350010053  1.0000
  H   H10       1.0  0.10166108618833847  0.35099360811328406  0.01867569777387778  1.0000
  H   H11       1.0  0.09858877745362382  0.19042385665980668  0.9212950661318806  1.0000
  C   C15       1.0  0.16829640005931235  0.5574768215473623  0.9835731627225143  1.0000
  C   C16       1.0  0.07966106326036604  0.5666579813808061  0.05627041056019853  1.0000
  C   C17       1.0  0.9928672845473748  0.5897916387048107  0.9800043245922976  1.0000
  C   C18       1.0  0.9952320522072343  0.6020018797763727  0.8284822683948554  1.0000
  C   C19       1.0  0.0822716085336206  0.5907028256578987  0.7547800869010639  1.0000
  C   C20       1.0  0.16928240493612834  0.5663928503086113  0.8300862253797741  1.0000
  C   C21       1.0  0.9006538212451621  0.5997451251873414  0.05988070997022432  1.0000
  O   O2        1.0  0.8938114770047602  0.5439246941007068  0.18735661297580464  1.0000
  N   N4        1.0  0.8190203856017177  0.6729207104030372  0.9962403070535227  1.0000
  H   H12       1.0  0.40298605843315766  0.6125855137301636  0.0833435595732741  1.0000
  H   H13       1.0  0.9296598379497851  0.6162607457299174  0.7658575596855466  1.0000
  H   H14       1.0  0.32742380781396085  0.5968186265916346  0.5470489862575514  1.0000
  H   H15       1.0  0.8241070456720471  0.7352099809006429  0.8984579553872395  1.0000
  H   H16       1.0  0.7537463770687739  0.6727552367188498  0.052507620783024615  1.0000
  Zn  Zn1       1.0  0.06297161067554424  0.561931515800829  0.4068715697417593  1.0000
  Zn  Zn2       1.0  0.2745979130959184  0.5619374924177614  0.40678713187754056  1.0000
  C   C22       1.0  0.1690536400312117  0.5589611279599984  0.6700876962064091  1.0000
  C   C23       1.0  0.1685182075929137  0.5649097018373476  0.14357114260396917  1.0000
  C   C24       1.0  0.17062116945993866  0.8253249102093434  0.40060066179865794  1.0000
  C   C25       1.0  0.16695059391385159  0.2985441873589787  0.4130582570772702  1.0000
  O   O3        1.0  0.24890368306243252  0.567400219488793  0.19723589411778336  1.0000
  O   O4        1.0  0.2492876233018373  0.5564740538694397  0.6163584454051343  1.0000
  O   O5        1.0  0.25055234225350254  0.7715661924203536  0.39874575612375013  1.0000
  O   O6        1.0  0.24763889184337498  0.3523080901162716  0.41484847533916636  1.0000
  O   O7        1.0  0.0899305597104192  0.77156091810177  0.3988102263013642  1.0000
  O   O8        1.0  0.08866585279141971  0.55647051177933  0.6164228355384285  1.0000
  O   O9        1.0  0.0882819102461263  0.567396608880564  0.1972985514467564  1.0000
  O   O10       1.0  0.08701711907679255  0.3523044703291005  0.4149112407493716  1.0000
