data_image0
_chemical_formula_structural       NC9NC3OCH8C12SCH12C12NCOH11Zn2C4O8
_chemical_formula_sum              "N3 C43 O10 H31 S1 Zn2"
_cell_length_a       17.728193572023454
_cell_length_b       10.299776766347529
_cell_length_c       10.299148425239203
_cell_angle_alpha    85.5384344644465
_cell_angle_beta     90.68912747422073
_cell_angle_gamma    88.43488659094776

_space_group_name_H-M_alt    "P 1"
_space_group_IT_number       1

loop_
  _space_group_symop_operation_xyz
  'x, y, z'

loop_
  _atom_site_type_symbol
  _atom_site_label
  _atom_site_symmetry_multiplicity
  _atom_site_fract_x
  _atom_site_fract_y
  _atom_site_fract_z
  _atom_site_occupancy
  N   N1        1.0  0.7105525358729307  0.3875049314323058  0.5851291837534763  1.0000
  C   C1        1.0  0.6499423816308325  0.35007166174303017  0.5981340592882791  1.0000
  C   C2        1.0  0.5744910684731751  0.30353710410220813  0.6143197952214212  1.0000
  C   C3        1.0  0.562605398421751  0.1754956796424683  0.6237362902730595  1.0000
  C   C4        1.0  0.48589814047069124  0.1260381571047335  0.638686321633104  1.0000
  C   C5        1.0  0.42773827954853894  0.20870031514391377  0.6561604577031632  1.0000
  C   C6        1.0  0.34969125077227536  0.16364347088506048  0.6778947153705857  1.0000
  C   C7        1.0  0.28834576641967735  0.2491266253958899  0.6424334707263399  1.0000
  C   C8        1.0  0.21407228048420165  0.20981562909917795  0.6625816140909311  1.0000
  C   C9        1.0  0.1517480701280403  0.297836451869318  0.6250459558919047  1.0000
  N   N2        1.0  0.10165281487838042  0.36859666513307365  0.5948708348635636  1.0000
  C   C10       1.0  0.20051267335145462  0.08490118387570189  0.7192451626084322  1.0000
  C   C11       1.0  0.2609592472631769  0.9997349874561113  0.7561150859144827  1.0000
  C   C12       1.0  0.33512913401642574  0.0385563048265547  0.7360965186543673  1.0000
  O   O1        1.0  0.44108020102769113  0.342485963676868  0.6548697983240837  1.0000
  C   C13       1.0  0.508805518078361  0.399886530571989  0.6062588031101371  1.0000
  H   H1        1.0  0.6095404211223986  0.10603610744710591  0.6216324096761952  1.0000
  H   H2        1.0  0.47825738280358043  0.02239017182368653  0.6366998029786509  1.0000
  H   H3        1.0  0.29823268411689413  0.34597034042448066  0.5980071821187269  1.0000
  H   H4        1.0  0.14329917140418152  0.05360621998388716  0.7353853474814642  1.0000
  H   H5        1.0  0.250335490495308  0.9035499419536339  0.8010025688901222  1.0000
  H   H6        1.0  0.380662786274118  0.971312373576864  0.7685166156029353  1.0000
  H   H7        1.0  0.49934730159090324  0.43585951746284146  0.5027262953094709  1.0000
  H   H8        1.0  0.5216699579025605  0.4842482717683992  0.6628483836433666  1.0000
  C   C14       1.0  0.9061774571374865  0.996682052849204  0.5900002795370362  1.0000
  C   C15       1.0  0.910691935092349  0.9848454678752865  0.7266355857232937  1.0000
  C   C16       1.0  0.9129067990692503  0.8617126655719886  0.79587333208238  1.0000
  C   C17       1.0  0.9105476322711715  0.7495646617046503  0.7266471827079368  1.0000
  C   C18       1.0  0.9060351699275377  0.7594092020310242  0.5900111772958834  1.0000
  C   C19       1.0  0.9038749174518271  0.8834052286203721  0.5224525653186224  1.0000
  C   C20       1.0  0.9176742908573701  0.8502552024268899  0.940417862191605  1.0000
  C   C21       1.0  0.8744729316903841  0.7588527231341596  0.013389339709380497  1.0000
  C   C22       1.0  0.8789823644583662  0.7483032709586761  0.14941989148081158  1.0000
  C   C23       1.0  0.926504731571909  0.828886090842115  0.21428106331936236  1.0000
  C   C24       1.0  0.969885976294808  0.9197055176671382  0.1426872214374588  1.0000
  C   C25       1.0  0.9654872024897654  0.9305995129694228  0.006649010308899524  1.0000
  S   S1        1.0  0.932374173165849  0.8148851313020267  0.3888290493345321  1.0000
  C   C26       1.0  0.8565383188709744  0.9346052455352298  0.40647010178128484  1.0000
  H   H9        1.0  0.9044869254213855  0.3286443756231055  0.5379367650023049  1.0000
  H   H10       1.0  0.9114554132478587  0.07161769485293723  0.7796164113337312  1.0000
  H   H11       1.0  0.9132788269536971  0.6543970304765503  0.779480871600795  1.0000
  H   H12       1.0  0.90039270563175  0.8917681374088868  0.41704424915967353  1.0000
  H   H13       1.0  0.90427804003404  0.4357084684935247  0.5379506699820589  1.0000
  H   H14       1.0  0.8364909181432318  0.69674445452438  0.965326049395441  1.0000
  H   H15       1.0  0.8452341947212064  0.6778495109040611  0.20430443643903537  1.0000
  H   H16       1.0  0.007064578784452769  0.9819078457761475  0.19231953897064577  1.0000
  H   H17       1.0  0.000187624617560057  0.0006376992009742442  0.9532013198571291  1.0000
  H   H18       1.0  0.8716527668775073  0.030224465672929354  0.35796571050567016  1.0000
  H   H19       1.0  0.847778156500059  0.9456645601831534  0.5115380903911453  1.0000
  H   H20       1.0  0.8034420881625396  0.9016571925178015  0.3630227094144633  1.0000
  C   C27       1.0  0.9061630332091564  0.37819872680662914  0.20861092001742773  1.0000
  C   C28       1.0  0.9827227741394209  0.4100558932259218  0.20654913631076185  1.0000
  C   C29       1.0  0.0214203335997607  0.4259997353019716  0.08836864289821844  1.0000
  C   C30       1.0  0.9825637494468594  0.4097234344561789  0.9712880138476122  1.0000
  C   C31       1.0  0.9060495595523015  0.37789253919834653  0.9714004765386187  1.0000
  C   C32       1.0  0.8682980896579291  0.36230782155969843  0.09057892829778691  1.0000
  C   C33       1.0  0.10236575629506506  0.45967873409879134  0.0872790491977946  1.0000
  C   C34       1.0  0.15308605635510686  0.3998562283085787  0.0049432812042149435  1.0000
  C   C35       1.0  0.22921911754395685  0.43168847294851065  0.004066183655826453  1.0000
  C   C36       1.0  0.2564147359811344  0.5226456979593606  0.08625431162595398  1.0000
  C   C37       1.0  0.205619198244003  0.584318038114382  0.16701984381904666  1.0000
  C   C38       1.0  0.12945201307627285  0.5525941107224852  0.16799293465514364  1.0000
  N   N3        1.0  0.33478144140178623  0.5550635616336563  0.08167158073683245  1.0000
  C   C39       1.0  0.37818273090430776  0.5896379342848879  0.1914834259584279  1.0000
  O   O2        1.0  0.3526509575716491  0.5767099000089795  0.3052073803633641  1.0000
  H   H21       1.0  0.7617805024988346  0.317300206471804  0.41985828506495415  1.0000
  H   H22       1.0  0.01266159172889303  0.4208037554323425  0.2972214971423177  1.0000
  H   H23       1.0  0.011840991861342907  0.4236995133334663  0.8797846545379042  1.0000
  H   H24       1.0  0.8092816656721373  0.33775227837409943  0.09138079108585861  1.0000
  H   H25       1.0  0.8766223673412213  0.36561311760873155  0.6439706494784788  1.0000
  H   H26       1.0  0.13407347804334946  0.3272663864656722  0.9422954754506914  1.0000
  H   H27       1.0  0.26735853620442596  0.38430709223062665  0.9400603986696656  1.0000
  H   H28       1.0  0.2242031269599052  0.6590931194238859  0.2272504049047121  1.0000
  H   H29       1.0  0.09140114391011103  0.6026374366773444  0.2301084016119732  1.0000
  H   H30       1.0  0.3638075422861891  0.544721030135751  0.9952113293212346  1.0000
  H   H31       1.0  0.43483953216305643  0.623938181739784  0.17707148100215916  1.0000
  Zn  Zn1       1.0  0.8234156391577773  0.3820449408575981  0.5879479140071737  1.0000
  Zn  Zn2       1.0  0.9887897375852502  0.37404604772681305  0.5920627428487213  1.0000
  C   C40       1.0  0.9060702968303125  0.3727768207382521  0.8272168313945805  1.0000
  C   C41       1.0  0.9061368854680275  0.38331571906542883  0.35279399789358257  1.0000
  C   C42       1.0  0.9060589305536205  0.6152398074515486  0.5848334791641217  1.0000
  C   C43       1.0  0.9061481955949243  0.1408511747526302  0.5951774179410201  1.0000
  O   O3        1.0  0.9688867196032414  0.3819918244189328  0.40274471197747674  1.0000
  O   O4        1.0  0.9688355771437986  0.3680287610087283  0.7803888033053872  1.0000
  O   O5        1.0  0.9688255525146812  0.563820729521111  0.5846625104452865  1.0000
  O   O6        1.0  0.9688966878141333  0.18619986796533428  0.5984709060523214  1.0000
  O   O7        1.0  0.8433086324948317  0.5698911233501232  0.5815397493925532  1.0000
  O   O8        1.0  0.8433186568396812  0.37410071516828924  0.7772659730246543  1.0000
  O   O9        1.0  0.8433697995900317  0.3880637339469431  0.3996203201906947  1.0000
  O   O10       1.0  0.8433797677850863  0.19227176816560676  0.5953466116397749  1.0000
