data_image0
_chemical_formula_structural       NC9NC3OCH8C12ClH9C12IH9Zn2C4O8
_chemical_formula_sum              "N2 C41 O9 H26 Cl1 I1 Zn2"
_cell_length_a       17.728193572023454
_cell_length_b       10.299768534541528
_cell_length_c       10.29977335064465
_cell_angle_alpha    85.54596918474078
_cell_angle_beta     90.71329701694225
_cell_angle_gamma    88.4716702258364

_space_group_name_H-M_alt    "P 1"
_space_group_IT_number       1

loop_
  _space_group_symop_operation_xyz
  'x, y, z'

loop_
  _atom_site_type_symbol
  _atom_site_label
  _atom_site_symmetry_multiplicity
  _atom_site_fract_x
  _atom_site_fract_y
  _atom_site_fract_z
  _atom_site_occupancy
  N   N1        1.0  0.710726302682152  0.3873128635606393  0.5852356531692235  1.0000
  C   C1        1.0  0.6501053404235534  0.3498817879472531  0.5982392865398241  1.0000
  C   C2        1.0  0.5746405960619189  0.3033499600841991  0.6144234770701003  1.0000
  C   C3        1.0  0.562709429393902  0.17531187749713517  0.6238379948508854  1.0000
  C   C4        1.0  0.4859873488590781  0.1258569888088279  0.6387865296421853  1.0000
  C   C5        1.0  0.4278625877138399  0.20851978553005734  0.6562604164715523  1.0000
  C   C6        1.0  0.34980402851212966  0.16346630408111107  0.6779927850917525  1.0000
  C   C7        1.0  0.2884818240362196  0.24894376399302537  0.6425347503971955  1.0000
  C   C8        1.0  0.2141985663821631  0.20963584240785504  0.6626811688172632  1.0000
  C   C9        1.0  0.1518980785370311  0.2976506802353913  0.625148882043409  1.0000
  N   N2        1.0  0.10182189386623815  0.3684060821746473  0.5949764713199932  1.0000
  C   C10       1.0  0.20060611910771695  0.08473029373009178  0.7193397128692183  1.0000
  C   C11       1.0  0.2610298739949521  0.9995699536369416  0.7562063383583304  1.0000
  C   C12       1.0  0.33520938122316574  0.038388220183967814  0.736189482419993  1.0000
  O   O1        1.0  0.4412541256444148  0.3423029570850804  0.6549712693246179  1.0000
  C   C13       1.0  0.5089890441016258  0.3996967560674549  0.6063640360005388  1.0000
  H   H1        1.0  0.6096180173817197  0.10585326199766977  0.6217335088183185  1.0000
  H   H2        1.0  0.4783074255179851  0.022210567983396153  0.6367990328697448  1.0000
  H   H3        1.0  0.2983940813965283  0.3457805228031998  0.5981123737933493  1.0000
  H   H4        1.0  0.14338486246755716  0.05343778950814414  0.7354785180255748  1.0000
  H   H5        1.0  0.2503811355392731  0.9033919076634882  0.8010898864883739  1.0000
  H   H6        1.0  0.38072582114715053  0.9711493056984135  0.7686067611863004  1.0000
  H   H7        1.0  0.4995190762946273  0.43565682715824594  0.5028386190008858  1.0000
  H   H8        1.0  0.5218987300277063  0.4840637500587714  0.6629508516081756  1.0000
  C   C14       1.0  0.9062065489885323  0.9964973515538869  0.5901022600228236  1.0000
  C   C15       1.0  0.911163967996525  0.005862549738599332  0.4537570275413361  1.0000
  C   C16       1.0  0.9137484813064202  0.8934650935305508  0.3846790096970698  1.0000
  C   C17       1.0  0.9113081000163517  0.7705678600553297  0.4537761072940272  1.0000
  C   C18       1.0  0.9063489057129321  0.7592112186741621  0.5901212335095392  1.0000
  C   C19       1.0  0.9038264577109133  0.8727319284901732  0.6575207900902558  1.0000
  C   C20       1.0  0.9189940207307367  0.9044263117907339  0.24043714501654012  1.0000
  C   C21       1.0  0.8760552789269762  6.354743976877114e-05  0.16490400968519592  1.0000
  C   C22       1.0  0.8810597689585636  0.010181510705038923  0.029149126917491712  1.0000
  C   C23       1.0  0.9289299662351581  0.9251883892634478  0.9672337053748747  1.0000
  C   C24       1.0  0.9718561993372593  0.8298644363667489  0.04125531109791192  1.0000
  C   C25       1.0  0.9669857241609748  0.8193477389667972  0.17702817494429593  1.0000
  Cl  Cl1       1.0  0.9351247578459391  0.9381329874934127  0.7969032754737042  1.0000
  H   H9        1.0  0.9042788074771898  0.32038437315116974  0.6420522878546413  1.0000
  H   H10       1.0  0.9140684784986849  0.10074963572206297  0.4010968649040998  1.0000
  H   H11       1.0  0.9122432020962012  0.6837040591104896  0.40085333868121653  1.0000
  H   H12       1.0  0.9000012728797504  0.8647389574279597  0.7627048415581914  1.0000
  H   H13       1.0  0.9044892678951056  0.42742860684439116  0.6420807585342936  1.0000
  H   H14       1.0  0.8379039402898716  0.06587040914442865  0.21069718453081102  1.0000
  H   H15       1.0  0.8475487752503754  0.0839315543321584  0.9722028177102913  1.0000
  H   H16       1.0  0.009165776751266065  0.7640521376727919  0.9937516957173584  1.0000
  H   H17       1.0  0.0014541838087465124  0.7458451463014701  0.23250402853849006  1.0000
  C   C26       1.0  0.9062417658235145  0.37796212179380206  0.20874168028799314  1.0000
  C   C27       1.0  0.974662494029957  0.4436573360011174  0.2041099863656122  1.0000
  C   C28       1.0  0.00936807826776631  0.47683603554217496  0.08463393569869537  1.0000
  C   C29       1.0  0.9747350442633643  0.44343967412708346  0.9688421756247637  1.0000
  C   C30       1.0  0.9063136844303286  0.3777464953826101  0.9714818956543789  1.0000
  C   C31       1.0  0.87245046867211  0.34537450282386883  0.09190938280583216  1.0000
  C   C32       1.0  0.0817512039677617  0.5463337849970504  0.08078800031555278  1.0000
  C   C33       1.0  0.09364150274358818  0.6487771430695053  0.1608968576065266  1.0000
  C   C34       1.0  0.16180797419932155  0.7140733829589274  0.15707621029431265  1.0000
  C   C35       1.0  0.2188418687920537  0.6779568809541032  0.07350669950907229  1.0000
  C   C36       1.0  0.20767967534277057  0.5763645134731394  0.9935587353424272  1.0000
  C   C37       1.0  0.1395897173505023  0.51083860481059  0.9969753421072958  1.0000
  I   I1        1.0  0.3216123275948386  0.7766265093732454  0.06805021159109748  1.0000
  H   H18       1.0  0.8801484396855177  0.3529953261944967  0.5379545103384793  1.0000
  H   H19       1.0  0.001652500197319327  0.4675993135917065  0.293759591680258  1.0000
  H   H20       1.0  0.000729538784898675  0.4703704763041954  0.8763773781357256  1.0000
  H   H21       1.0  0.8196665683867794  0.2946947923650416  0.09471415383065596  1.0000
  H   H22       1.0  0.8802537607870752  0.3526780959328011  0.6450372875321033  1.0000
  H   H23       1.0  0.04988818198360079  0.6794699683800962  0.2251983958856545  1.0000
  H   H24       1.0  0.1701745661000349  0.7929451473543137  0.2188720660433803  1.0000
  H   H25       1.0  0.2518040416874379  0.5478899589096158  0.9289753431763308  1.0000
  H   H26       1.0  0.1325344355342144  0.4313625658642284  0.9353730454931451  1.0000
  Zn  Zn1       1.0  0.8235880536905964  0.38185330245053767  0.5880541425259156  1.0000
  Zn  Zn2       1.0  0.9889601674774793  0.37385503675096327  0.5921686193997517  1.0000
  C   C38       1.0  0.9062974373687042  0.37261374838612693  0.8273074614990324  1.0000
  C   C39       1.0  0.9062525899755484  0.38309614202817066  0.3529154728642976  1.0000
  C   C40       1.0  0.906317618675883  0.6150437488918437  0.5849423995940235  1.0000
  C   C41       1.0  0.9062323519537522  0.14066458395805692  0.595280602565259  1.0000
  O   O2        1.0  0.9690140769405529  0.3817782003311021  0.4028629370863317  1.0000
  O   O3        1.0  0.9690495580996054  0.3678602118855745  0.7804824161501093  1.0000
  O   O4        1.0  0.9690650088817933  0.5636255437752913  0.5847708928734356  1.0000
  O   O5        1.0  0.9689985697206174  0.1860128804882324  0.5985743615842769  1.0000
  O   O6        1.0  0.8435495950140715  0.5696954614440999  0.5816483989304901  1.0000
  O   O7        1.0  0.8435341445131145  0.373931689849611  0.7773598530003103  1.0000
  O   O8        1.0  0.8434986632485882  0.38784963347898715  0.3997388125311588  1.0000
  O   O9        1.0  0.8434831560330139  0.1920843043201015  0.5954503343969324  1.0000
