data_image0
_chemical_formula_structural       NC5OC5NC4H8C9H8C6NH7Zn2C4O8
_chemical_formula_sum              "N3 C33 O9 H23 Zn2"
_cell_length_a       19.189071930511275
_cell_length_b       9.275152443626249
_cell_length_c       9.274774538082516
_cell_angle_alpha    84.86265069898316
_cell_angle_beta     90.32765294797488
_cell_angle_gamma    90.56463589314393

_space_group_name_H-M_alt    "P 1"
_space_group_IT_number       1

loop_
  _space_group_symop_operation_xyz
  'x, y, z'

loop_
  _atom_site_type_symbol
  _atom_site_label
  _atom_site_symmetry_multiplicity
  _atom_site_fract_x
  _atom_site_fract_y
  _atom_site_fract_z
  _atom_site_occupancy
  N   N1        1.0  0.6592073993336011  0.5925341064320901  0.40204032517333066  1.0000
  C   C1        1.0  0.6049387100607689  0.6439415172118623  0.3815351675941787  1.0000
  C   C2        1.0  0.5374354506340727  0.7078837726375127  0.3560298358568672  1.0000
  C   C3        1.0  0.5279317775790618  0.8165333060776843  0.24294849954838305  1.0000
  C   C4        1.0  0.4623604449831655  0.8787249537250259  0.218312647053857  1.0000
  C   C5        1.0  0.4056290754288893  0.8321651684248145  0.30525234672135104  1.0000
  O   O1        1.0  0.3408989210155686  0.8984128909441778  0.27808546978674076  1.0000
  C   C6        1.0  0.2756851987678838  0.8319600626100779  0.3046260454353317  1.0000
  C   C7        1.0  0.21943660914730362  0.9178573137473082  0.3379570572451618  1.0000
  C   C8        1.0  0.1534131234037592  0.8559745519938828  0.36353719451653865  1.0000
  C   C9        1.0  0.14297193729313062  0.7074028849815492  0.354559974924862  1.0000
  C   C10       1.0  0.0750032959938602  0.6436765619778637  0.38072521129824216  1.0000
  N   N2        1.0  0.020360507553110904  0.5924428127720285  0.4017613870044967  1.0000
  C   C11       1.0  0.19873943809018396  0.621181737532382  0.31909926579539705  1.0000
  C   C12       1.0  0.2647544164174224  0.6831078899777068  0.2935674710982925  1.0000
  C   C13       1.0  0.4156249861602332  0.7245026695861831  0.42012879824208316  1.0000
  C   C14       1.0  0.4811875819588714  0.6623058685251133  0.44483287872470395  1.0000
  H   H1        1.0  0.5711546633380951  0.8532485877222519  0.1740411399617512  1.0000
  H   H2        1.0  0.4554742865374365  0.9628406479748576  0.1308178269761342  1.0000
  H   H3        1.0  0.22704843683416434  0.03285032353511985  0.3448676434876694  1.0000
  H   H4        1.0  0.1105715545968868  0.9239118484888748  0.39008920581094997  1.0000
  H   H5        1.0  0.191116823344563  0.5063741003662063  0.3104378855402887  1.0000
  H   H6        1.0  0.30687696740945286  0.6154354652513749  0.26322082723185525  1.0000
  H   H7        1.0  0.3731306605976502  0.6901823621165994  0.4917541837929326  1.0000
  H   H8        1.0  0.4880894357194157  0.5793436075401535  0.5335366880885226  1.0000
  C   C15       1.0  0.8377358376250512  0.16884387538831394  0.4033759323314736  1.0000
  C   C16       1.0  0.812239980846438  0.2526571929892698  0.28077980740345976  1.0000
  C   C17       1.0  0.7932152074686913  0.18830811552042603  0.15588301019455564  1.0000
  C   C18       1.0  0.7993860773983248  0.03900613435380861  0.15110935912360457  1.0000
  C   C19       1.0  0.8235161924193573  0.9535140365618153  0.2726702764372777  1.0000
  C   C20       1.0  0.8418387472134466  0.016121904882324015  0.4004382409184575  1.0000
  C   C21       1.0  0.780129473300596  0.9729876256136161  0.02177052713542449  1.0000
  C   C22       1.0  0.7640065382587516  0.9176793063127543  0.913469533114927  1.0000
  C   C23       1.0  0.7444445365013134  0.8505604452801849  0.782065270451914  1.0000
  H   H9        1.0  0.9387091333873266  0.24796039263720984  0.6915427208930454  1.0000
  H   H10       1.0  0.808567740575667  0.3691795592593512  0.28032864871993235  1.0000
  H   H11       1.0  0.7743113678629976  0.25536644266662645  0.0624218826327343  1.0000
  H   H12       1.0  0.8264385568035376  0.8372383204889832  0.26864173313523243  1.0000
  H   H13       1.0  0.9075960502178122  0.7190895330235368  0.5975372021594654  1.0000
  H   H14       1.0  0.7572233648417619  0.7337180012694104  0.7955389718874989  1.0000
  H   H15       1.0  0.6876676326243236  0.8633293731767783  0.7623503924456645  1.0000
  H   H16       1.0  0.7736023261227092  0.9037149386845459  0.6886197221636721  1.0000
  C   C24       1.0  0.8385545125292946  0.5961729888976015  0.9780789630630649  1.0000
  C   C25       1.0  0.888346003513981  0.6812942210876342  0.0444821565914768  1.0000
  C   C26       1.0  0.9412063408476745  0.7545309304833652  0.9634227118424046  1.0000
  C   C27       1.0  0.9447020446965404  0.7429785153126778  0.8144826043189348  1.0000
  C   C28       1.0  0.8951495216154173  0.6610352473187937  0.7463656567889604  1.0000
  C   C29       1.0  0.8410200604151225  0.5887927179589927  0.825735243828141  1.0000
  N   N3        1.0  0.991796877553104  0.8394512560055223  0.03283122843012443  1.0000
  H   H17       1.0  0.733023080347896  0.31418591966429443  0.10505752774719479  1.0000
  H   H18       1.0  0.8871247267898743  0.6881366487820324  0.160479532127179  1.0000
  H   H19       1.0  0.9855102440737799  0.7987066186391103  0.7507272657592909  1.0000
  H   H20       1.0  0.8982375915535991  0.6570215523158804  0.6302041203428197  1.0000
  H   H21       1.0  0.7678219636684984  0.40325690601355824  0.5603526571558608  1.0000
  H   H22       1.0  0.9898170361560981  0.8484985952932492  0.14417134755794156  1.0000
  H   H23       1.0  0.03159373928711551  0.8940451372162304  0.9733692848911035  1.0000
  Zn  Zn1       1.0  0.7634283993968555  0.5925038399491922  0.4019681713697232  1.0000
  Zn  Zn2       1.0  0.9161395022573643  0.5924612189702219  0.4018453821304875  1.0000
  C   C30       1.0  0.8405246380805168  0.584440585856669  0.6655299857429346  1.0000
  C   C31       1.0  0.8390449404007787  0.6005262916283205  0.13828370176302673  1.0000
  C   C32       1.0  0.8410428897813613  0.8560183691388299  0.3952422163791043  1.0000
  C   C33       1.0  0.8385266284208646  0.3289467744250192  0.40857155412550544  1.0000
  O   O2        1.0  0.8971625696720823  0.6019648315512928  0.19200329950439565  1.0000
  O   O3        1.0  0.8983111959073159  0.5829686128871561  0.6117167821158365  1.0000
  O   O4        1.0  0.898728913839976  0.8022710946091249  0.39345749145099296  1.0000
  O   O5        1.0  0.8967447993646775  0.3826623611061275  0.4102624819596037  1.0000
  O   O6        1.0  0.782823050176723  0.802302697829468  0.3935510715749122  1.0000
  O   O7        1.0  0.7824053404103138  0.5830019500448205  0.6118102792754121  1.0000
  O   O8        1.0  0.7812567089307486  0.601998133544325  0.19209506160097645  1.0000
  O   O9        1.0  0.7808389388852696  0.38269565183853693  0.4103543523001254  1.0000
