data_image0
_chemical_formula_structural       NC9NC3OH6C7ONH7C9H10Zn2C4O8
_chemical_formula_sum              "N3 C32 O10 H23 Zn2"
_cell_length_a       15.78231758774541
_cell_length_b       10.297852080636378
_cell_length_c       9.272679976505534
_cell_angle_alpha    86.02025868142809
_cell_angle_beta     90.48255963298988
_cell_angle_gamma    89.61065309411966

_space_group_name_H-M_alt    "P 1"
_space_group_IT_number       1

loop_
  _space_group_symop_operation_xyz
  'x, y, z'

loop_
  _atom_site_type_symbol
  _atom_site_label
  _atom_site_symmetry_multiplicity
  _atom_site_fract_x
  _atom_site_fract_y
  _atom_site_fract_z
  _atom_site_occupancy
  N   N1        1.0  0.7910842547575181  0.4020905033199061  0.4124162083745151  1.0000
  C   C1        1.0  0.7426810463213013  0.3202046908848819  0.4391482175774542  1.0000
  C   C2        1.0  0.6825866286047131  0.21856449630927258  0.47232952774904247  1.0000
  C   C3        1.0  0.7024497319248428  0.09088739779074008  0.5139224456004059  1.0000
  C   C4        1.0  0.625816665710539  0.02901067403298563  0.5341627629699919  1.0000
  C   C5        1.0  0.5638877941549584  0.12350666958904236  0.5034250697932618  1.0000
  C   C6        1.0  0.4708246295981371  0.10603653815069625  0.5092098715960469  1.0000
  C   C7        1.0  0.4169107597937003  0.2131582735474  0.47418163745411746  1.0000
  C   C8        1.0  0.3287271154661428  0.19883324187191367  0.4789329855262072  1.0000
  C   C9        1.0  0.2741118007295296  0.30907167377837236  0.4428764321617686  1.0000
  N   N2        1.0  0.23021399905858228  0.3976891400421758  0.4138901858510802  1.0000
  C   C10       1.0  0.2937763140600768  0.0772270553744423  0.5187669580086953  1.0000
  C   C11       1.0  0.34675892209458364  0.9703268260004836  0.553727609188446  1.0000
  C   C12       1.0  0.43475752593363476  0.9842583159057412  0.5491053763051614  1.0000
  O   O1        1.0  0.6001701191180637  0.23549592813610176  0.4668887160100754  1.0000
  H   H1        1.0  0.7649775307391491  0.04782969314778019  0.5278926200453593  1.0000
  H   H2        1.0  0.6172443745292495  0.9272682505084423  0.5673239692665755  1.0000
  H   H3        1.0  0.4433668969642721  0.30778941142871163  0.4431785021529635  1.0000
  H   H4        1.0  0.22567935914732218  0.06509448099111603  0.5227887465822341  1.0000
  H   H5        1.0  0.3195714502254475  0.8763426390767569  0.5845192612113344  1.0000
  H   H6        1.0  0.4739774115766988  0.8995858719476563  0.576805832518688  1.0000
  C   C13       1.0  0.01074353192270005  0.018451801325225725  0.4131621090250104  1.0000
  C   C14       1.0  0.998536177625563  0.02702088350819043  0.2625140285007912  1.0000
  C   C15       1.0  0.9915983992837267  0.9142813878234918  0.18624359164126858  1.0000
  C   C16       1.0  0.9983217624702372  0.7917704631642273  0.26246357359015104  1.0000
  C   C17       1.0  0.010562827567606398  0.7813178746750074  0.41315670904140056  1.0000
  C   C18       1.0  0.01649324120570795  0.8951737902458959  0.48755482986988713  1.0000
  C   C19       1.0  0.9789150741856419  0.925930462032779  0.0271104046946542  1.0000
  O   O2        1.0  0.0012616569019634543  0.028291409808056233  0.9553940373821329  1.0000
  N   N3        1.0  0.9407570675753891  0.8239644625422362  0.9525491235170676  1.0000
  H   H7        1.0  0.034121990235646854  0.20952606352024894  0.6978116051379091  1.0000
  H   H8        1.0  0.9936585143214949  0.12177585912891375  0.20438437689840505  1.0000
  H   H9        1.0  0.9956904113506228  0.7041782122159184  0.20463311863178468  1.0000
  H   H10       1.0  0.025899487196729742  0.8878159641619885  0.6036611702727013  1.0000
  H   H11       1.0  0.035054792778121055  0.5542908664861348  0.6976785727409776  1.0000
  H   H12       1.0  0.9360311354420935  0.8322674936615546  0.8398919108590963  1.0000
  H   H13       1.0  0.9120447957330866  0.7445173437555517  0.0078485217269324  1.0000
  C   C20       1.0  0.00893599825310232  0.3968348400491721  0.9897910185065641  1.0000
  C   C21       1.0  0.06653728159487704  0.31591013843081983  0.07025107658449459  1.0000
  C   C22       1.0  0.1283086915480579  0.2454694286218171  0.0018578348004478823  1.0000
  C   C23       1.0  0.1345676281845204  0.2536362897262645  0.8510165413855835  1.0000
  C   C24       1.0  0.07594970975469907  0.33280830640776693  0.7691688051814816  1.0000
  C   C25       1.0  0.012370380888573113  0.40293485451777267  0.8365279029647512  1.0000
  C   C26       1.0  0.2042424822182446  0.17469231568112775  0.7851026482235306  1.0000
  C   C27       1.0  0.18408089144523598  0.11545041608145647  0.6429354738577255  1.0000
  C   C28       1.0  0.24365070464026262  0.2311585696310925  0.6453162322847628  1.0000
  H   H14       1.0  0.8813354993440996  0.4859361540654459  0.26231307104174517  1.0000
  H   H15       1.0  0.0651974674400721  0.30937149561139066  0.187321221933068  1.0000
  H   H16       1.0  0.17218694113101984  0.1850018404542515  0.06763788719890007  1.0000
  H   H17       1.0  0.07784373178740162  0.3384045585588789  0.6523962242135473  1.0000
  H   H18       1.0  0.8199759065160411  0.5270599036929283  0.7211786478569562  1.0000
  H   H19       1.0  0.24854117347463967  0.11581642132946902  0.857437972413249  1.0000
  H   H20       1.0  0.12113824625719055  0.13824718999953925  0.5930424653744515  1.0000
  H   H21       1.0  0.21701430058742022  0.02160963483126355  0.6287525956876299  1.0000
  H   H22       1.0  0.21693420118503404  0.3241818019494423  0.5967528450180319  1.0000
  H   H23       1.0  0.3114099606879972  0.20493552660890746  0.6325210074007637  1.0000
  Zn  Zn1       1.0  0.9178076441558346  0.4008169552761592  0.4128498851679878  1.0000
  Zn  Zn2       1.0  0.10349063148071108  0.3989521715986055  0.4134682946079882  1.0000
  C   C29       1.0  0.011720552796235625  0.396607208039385  0.6764764887267107  1.0000
  C   C30       1.0  0.009579750678553104  0.4031635384079551  0.14984183929489925  1.0000
  C   C31       1.0  0.010569346501359204  0.637078602609315  0.4074126526520363  1.0000
  C   C32       1.0  0.010730894294165955  0.16269058444273532  0.41890575203325553  1.0000
  O   O3        1.0  0.08026152721013768  0.4045741649351138  0.20379104003310777  1.0000
  O   O4        1.0  0.0819678657811162  0.3937802709592342  0.622996231434257  1.0000
  O   O5        1.0  0.08103730830770717  0.5879639835897862  0.40572527695952165  1.0000
  O   O6        1.0  0.08119202088186922  0.210390461454038  0.42106188619838414  1.0000
  O   O7        1.0  0.9401061913901545  0.5893786660584452  0.4052562933589754  1.0000
  O   O8        1.0  0.9410367481783054  0.39519651346090107  0.6225271709514129  1.0000
  O   O9        1.0  0.9393304026438521  0.40599034968474745  0.20332024619571465  1.0000
  O   O10       1.0  0.9402608967527394  0.21180663769191413  0.4205912004518344  1.0000
