data_image0
_chemical_formula_structural       NC9NC3OH6C6NCOCH9C8H6Zn2C4O8
_chemical_formula_sum              "N3 C32 O10 H21 Zn2"
_cell_length_a       15.78231758774541
_cell_length_b       10.300268703208218
_cell_length_c       9.275144076552241
_cell_angle_alpha    85.95897192473107
_cell_angle_beta     90.54614249944106
_cell_angle_gamma    89.61162997741629

_space_group_name_H-M_alt    "P 1"
_space_group_IT_number       1

loop_
  _space_group_symop_operation_xyz
  'x, y, z'

loop_
  _atom_site_type_symbol
  _atom_site_label
  _atom_site_symmetry_multiplicity
  _atom_site_fract_x
  _atom_site_fract_y
  _atom_site_fract_z
  _atom_site_occupancy
  N   N1        1.0  0.7900571879308436  0.40330594306548084  0.41270245391879445  1.0000
  C   C1        1.0  0.7416706249907457  0.3214133453966235  0.43942962803544394  1.0000
  C   C2        1.0  0.6815968686363753  0.2197647283174562  0.47260493661963543  1.0000
  C   C3        1.0  0.701485868053029  0.09207713569318599  0.5141903313841136  1.0000
  C   C4        1.0  0.6248654064620063  0.030195245421636097  0.5344269878685004  1.0000
  C   C5        1.0  0.5629173989319416  0.12469896315449769  0.5036948543851378  1.0000
  C   C6        1.0  0.4698578392384127  0.10722730471874531  0.509478609941491  1.0000
  C   C7        1.0  0.4159221560704819  0.21435797272421508  0.4744567113987772  1.0000
  C   C8        1.0  0.32774147286583677  0.200031681200066  0.4792072001424496  1.0000
  C   C9        1.0  0.27310370408147383  0.31027931453626323  0.4431571683632367  1.0000
  N   N2        1.0  0.22918785131425293  0.3989041789554648  0.41417616482305  1.0000
  C   C10       1.0  0.2928154798939223  0.0784152867518584  0.5190339678614795  1.0000
  C   C11       1.0  0.34581985937051296  0.9715061385229637  0.5539882956697031  1.0000
  C   C12       1.0  0.4338155825060084  0.9854388550429263  0.549366898761958  1.0000
  O   O1        1.0  0.5991769742126871  0.23669747892904705  0.46716510904337794  1.0000
  H   H1        1.0  0.7640223628815317  0.04901594707726842  0.5281579789391515  1.0000
  H   H2        1.0  0.6163137623019681  0.928444442951063  0.5675821961711027  1.0000
  H   H3        1.0  0.4423589844374966  0.30899705930966737  0.4434591836249515  1.0000
  H   H4        1.0  0.2247210313506526  0.0662816476386754  0.5230550290528098  1.0000
  H   H5        1.0  0.3186515646088095  0.8775140567782607  0.5847743784165529  1.0000
  H   H6        1.0  0.4730527186800816  0.900759337797794  0.5770623447707641  1.0000
  C   C13       1.0  0.009712686348197767  0.01975657445420987  0.4134481199646798  1.0000
  C   C14       1.0  0.023291418465100733  0.028066044410208543  0.2636589299649097  1.0000
  C   C15       1.0  0.031291071900690234  0.9149431407459487  0.18849184988228251  1.0000
  C   C16       1.0  0.023099901130301238  0.792908670994836  0.2636942464430989  1.0000
  C   C17       1.0  0.009540483878584196  0.7824435921564776  0.41344295679437426  1.0000
  C   C18       1.0  0.0032378589255885886  0.8964619458824792  0.48761795630735905  1.0000
  N   N3        1.0  0.04387228442537247  0.9218712892804968  0.03476745125913051  1.0000
  C   C19       1.0  0.09325097570066648  0.019997840463848338  0.957482170881585  1.0000
  O   O2        1.0  0.14140922422169946  0.0929283423032452  0.02420521684527133  1.0000
  C   C20       1.0  0.09252489019417748  0.029877564998076696  0.7960106795186532  1.0000
  H   H7        1.0  0.0033163495404757723  0.3440562519632786  0.47005540201608786  1.0000
  H   H8        1.0  0.025965960847329928  0.12252040439627464  0.2050291684849479  1.0000
  H   H9        1.0  0.028081698691482474  0.7061261453018225  0.2047085566716531  1.0000
  H   H10       1.0  0.9927881110860558  0.8892435929626964  0.6031522263652931  1.0000
  H   H11       1.0  0.0031480409793327477  0.4511046486560538  0.4698415403519156  1.0000
  H   H12       1.0  0.02025994498555273  0.8463204098733584  0.976772581912309  1.0000
  H   H13       1.0  0.027481073821978834  0.01323797897215062  0.7549267909012842  1.0000
  H   H14       1.0  0.11333389808798255  0.1280650969284194  0.7540506003086973  1.0000
  H   H15       1.0  0.1360733050748687  0.9554664741492674  0.7564783298345086  1.0000
  C   C21       1.0  0.00763130805268108  0.3984626908873078  0.990153365541115  1.0000
  C   C22       1.0  0.9523651503830806  0.48370783232212905  0.055941114766396405  1.0000
  C   C23       1.0  0.9038966776320767  0.5753190482347244  0.9728427474985133  1.0000
  C   C24       1.0  0.909817636084922  0.5835582190674349  0.8224320889466337  1.0000
  C   C25       1.0  0.9633247019181084  0.4982354779884377  0.7548826041745484  1.0000
  C   C26       1.0  0.011621877410641126  0.403737487798663  0.8367377712111903  1.0000
  C   C27       1.0  0.8601176659070533  0.6787515796350023  0.7369596530014748  1.0000
  C   C28       1.0  0.8185089683734474  0.7584507762646698  0.6653830396298757  1.0000
  H   H16       1.0  0.18382138412077187  0.22622496002857037  0.10934970326822692  1.0000
  H   H17       1.0  0.948127208934887  0.4815672993018276  0.17259702922275988  1.0000
  H   H18       1.0  0.8623674823171499  0.6406664193767913  0.026141379237964776  1.0000
  H   H19       1.0  0.9657527412776762  0.5036072846083761  0.6378061091752003  1.0000
  H   H20       1.0  0.12841475356677468  0.2836652237518227  0.5673162733333199  1.0000
  H   H21       1.0  0.7819851693123842  0.8284096708018773  0.6025521557918414  1.0000
  Zn  Zn1       1.0  0.9167808479819758  0.40203227205721603  0.41313605228639694  1.0000
  Zn  Zn2       1.0  0.10246422070687461  0.4001673244788459  0.4137543498808345  1.0000
  C   C29       1.0  0.0108668501730167  0.39756702744136807  0.6767151830366318  1.0000
  C   C30       1.0  0.008380246469459115  0.40463418814284524  0.15017536734996173  1.0000
  C   C31       1.0  0.009541608160143824  0.6382437469852724  0.4076998606248752  1.0000
  C   C32       1.0  0.009705425836067367  0.16395590949513195  0.41919076641118735  1.0000
  O   O3        1.0  0.07909747057489253  0.40599199567443245  0.20411485372909244  1.0000
  O   O4        1.0  0.08107900781024785  0.39479278559436315  0.6232445552895363  1.0000
  O   O5        1.0  0.08000791527627488  0.5891422992779023  0.406012775941776  1.0000
  O   O6        1.0  0.08016849923615621  0.2116424912435977  0.42134652478689993  1.0000
  O   O7        1.0  0.9390765060880354  0.5905571059302459  0.40554387716175455  1.0000
  O   O8        1.0  0.9401475979036146  0.39620915198829726  0.6227755796414687  1.0000
  O   O9        1.0  0.9381660525657375  0.4074083060162937  0.20364414503858974  1.0000
  O   O10       1.0  0.939237081735052  0.21305879297053584  0.4208759241677731  1.0000
