data_image0
_chemical_formula_structural       NC5NC3BrH3C6NH7C9H8Zn2C4O8
_chemical_formula_sum              "N3 C27 Br1 H18 Zn2 O8"
_cell_length_a       13.839083392302014
_cell_length_b       9.274771166103582
_cell_length_c       9.275155815604963
_cell_angle_alpha    85.94411296578332
_cell_angle_beta     90.35828541235293
_cell_angle_gamma    90.6230172981901

_space_group_name_H-M_alt    "P 1"
_space_group_IT_number       1

loop_
  _space_group_symop_operation_xyz
  'x, y, z'

loop_
  _atom_site_type_symbol
  _atom_site_label
  _atom_site_symmetry_multiplicity
  _atom_site_fract_x
  _atom_site_fract_y
  _atom_site_fract_z
  _atom_site_occupancy
  N   N1        1.0  0.9141719886474531  0.5655598378107427  0.407358966385992  1.0000
  C   C1        1.0  0.8417356538227666  0.5019174460792646  0.40993939803635193  1.0000
  C   C2        1.0  0.7514865706224628  0.42272430510021725  0.41315018950899884  1.0000
  C   C3        1.0  0.6644494125226137  0.49892530302906074  0.41006090514826465  1.0000
  C   C4        1.0  0.5758934380431183  0.4241970466842089  0.4130904227145369  1.0000
  C   C5        1.0  0.48666988360693014  0.5027494700638941  0.4099056477256251  1.0000
  N   N2        1.0  0.41494575053809096  0.5658994585377537  0.40734514128862775  1.0000
  C   C6        1.0  0.5743066659022256  0.27295628587388854  0.4192219015123808  1.0000
  C   C7        1.0  0.6608979512628551  0.19663401788461513  0.42231601096613347  1.0000
  C   C8        1.0  0.7496450866063497  0.27064814060764464  0.41931546539708564  1.0000
  Br  Br1       1.0  0.8662976592118775  0.16055632160265154  0.42377880635178666  1.0000
  H   H1        1.0  0.6656239353288108  0.616124090884296  0.4053093286226732  1.0000
  H   H2        1.0  0.5062110592918495  0.21410290105123986  0.4216076194017959  1.0000
  H   H3        1.0  0.6589619283102226  0.07968443649365375  0.42705710693558196  1.0000
  C   C9        1.0  0.16160022710953448  0.14213784433124466  0.4081377102902952  1.0000
  C   C10       1.0  0.1388179375266274  0.2243208225200242  0.27925566076299435  1.0000
  C   C11       1.0  0.1250540129094111  0.1581447347788767  0.1495556580112838  1.0000
  C   C12       1.0  0.13411904940717712  0.008400134293881312  0.14779827151669034  1.0000
  C   C13       1.0  0.1551070015420617  0.9248812586004687  0.27490989932308296  1.0000
  C   C14       1.0  0.1675267460022416  0.989310474722432  0.40657893840848286  1.0000
  N   N3        1.0  0.10285939211265527  0.24341540636939163  0.01925709698656885  1.0000
  H   H4        1.0  0.2716858399614155  0.2245901171391216  0.723550239151161  1.0000
  H   H5        1.0  0.133943460904695  0.340905455629259  0.278702180936897  1.0000
  H   H6        1.0  0.12398643634400819  0.9560463382004759  0.0480071922633667  1.0000
  H   H7        1.0  0.15934790781630645  0.8086845600275211  0.2707821905341139  1.0000
  H   H8        1.0  0.23776651793868808  0.6941405233208368  0.6211712637425229  1.0000
  H   H9        1.0  0.09620161036921782  0.3554843894001054  0.019210469823216277  1.0000
  H   H10       1.0  0.09282780414671432  0.19509930546214438  0.9218361784466006  1.0000
  C   C15       1.0  0.16276751345164708  0.5620768517137009  0.9841338319818478  1.0000
  C   C16       1.0  0.08766751381056292  0.6323117636051268  0.0518214580738523  1.0000
  C   C17       1.0  0.019106792027710602  0.7121377389682917  0.9703916260054464  1.0000
  C   C18       1.0  0.024375949463175676  0.7234004832143401  0.8197889684385289  1.0000
  C   C19       1.0  0.09752602662275889  0.6523892420505601  0.7503944571606076  1.0000
  C   C20       1.0  0.16635942484806132  0.5693713852275126  0.8305827423652667  1.0000
  C   C21       1.0  0.9538855651738367  0.806595143992229  0.7360403709399317  1.0000
  C   C22       1.0  0.8948625923923776  0.876259313161272  0.6658857077505763  1.0000
  C   C23       1.0  0.8232488335624022  0.9607850040141692  0.5807534091792106  1.0000
  H   H11       1.0  0.3862375736035446  0.44584846299221476  0.09729964224242504  1.0000
  H   H12       1.0  0.08329831995235093  0.6283102746326967  0.16862047314916628  1.0000
  H   H13       1.0  0.9624638927875627  0.7663156767079577  0.025106468014106657  1.0000
  H   H14       1.0  0.09935884444948016  0.6591733838171616  0.6332356314169703  1.0000
  H   H15       1.0  0.3154262469494824  0.4859385123119544  0.5571499362239996  1.0000
  H   H16       1.0  0.8429135199336647  0.9649427953874401  0.46474625442424244  1.0000
  H   H17       1.0  0.7509224084663836  0.909370133133918  0.5958761869651581  1.0000
  H   H18       1.0  0.8215825574889075  0.07216523976401801  0.6170532596978555  1.0000
  Zn  Zn1       1.0  0.05868449026233114  0.5656540493538609  0.4073633130606311  1.0000
  Zn  Zn2       1.0  0.27043320854526276  0.5657935258504732  0.40735264398681825  1.0000
  C   C24       1.0  0.16563813567897578  0.5622461184639795  0.6705963824538974  1.0000
  C   C25       1.0  0.16348188875061864  0.5692032795203965  0.14411971258416822  1.0000
  C   C26       1.0  0.16637715095053474  0.8291272863299695  0.40113040362493013  1.0000
  C   C27       1.0  0.16274278942631115  0.3023203792188758  0.41358577144322695  1.0000
  O   O1        1.0  0.24407913065388565  0.5716416113776066  0.19780839832465613  1.0000
  O   O2        1.0  0.24575326204750647  0.5599125542734684  0.6168991862595752  1.0000
  O   O3        1.0  0.2463489493267006  0.7754224846993565  0.39930349913350915  1.0000
  O   O4        1.0  0.24348337073282122  0.35613169029164626  0.4154039773737557  1.0000
  O   O5        1.0  0.08563425581530604  0.7753158848665966  0.39931197966975085  1.0000
  O   O6        1.0  0.08503858032939382  0.5598076868301475  0.6169075867617828  1.0000
  O   O7        1.0  0.08336444129535048  0.5715366787351579  0.19781506615361377  1.0000
  O   O8        1.0  0.08276868175668972  0.3560267482631785  0.41541075327573695  1.0000
