data_image0
_chemical_formula_structural       NC5NC3OH4C6BrH5C7F3H5Zn2C4O8
_chemical_formula_sum              "N2 C25 O9 H14 Br1 F3 Zn2"
_cell_length_a       13.84702359539666
_cell_length_b       9.276564384272257
_cell_length_c       10.299327507215196
_cell_angle_alpha    85.50433020317719
_cell_angle_beta     89.96690636176139
_cell_angle_gamma    90.58678901707502

_space_group_name_H-M_alt    "P 1"
_space_group_IT_number       1

loop_
  _space_group_symop_operation_xyz
  'x, y, z'

loop_
  _atom_site_type_symbol
  _atom_site_label
  _atom_site_symmetry_multiplicity
  _atom_site_fract_x
  _atom_site_fract_y
  _atom_site_fract_z
  _atom_site_occupancy
  N   N1        1.0  0.9205414376654963  0.5784973256067656  0.5659296759261514  1.0000
  C   C1        1.0  0.8483239557247554  0.5698193274429291  0.622751950890502  1.0000
  C   C2        1.0  0.758386129566229  0.5590133868431302  0.6935076558529469  1.0000
  C   C3        1.0  0.6708902768231331  0.5694526110183472  0.6251525658757431  1.0000
  C   C4        1.0  0.5829416104685113  0.5591346778361752  0.692713106054546  1.0000
  C   C5        1.0  0.4931814653973834  0.5698826699463393  0.6223369342058525  1.0000
  N   N2        1.0  0.4210259311508602  0.5785232303887651  0.5657601026031969  1.0000
  C   C6        1.0  0.5824831813701851  0.538346382633174  0.8288318187135267  1.0000
  C   C7        1.0  0.6695987237969145  0.5278974278634485  0.8972482106061621  1.0000
  C   C8        1.0  0.7578622566164831  0.5381488662901417  0.8301244083817071  1.0000
  O   O1        1.0  0.8446980161072161  0.5276820733990937  0.8986592052407446  1.0000
  H   H1        1.0  0.6712500092833112  0.5855577114000867  0.519699499799539  1.0000
  H   H2        1.0  0.5148597774996256  0.5302256221242398  0.8820050729299261  1.0000
  H   H3        1.0  0.668460907557085  0.511824271307322  0.0024927571333130906  1.0000
  H   H4        1.0  0.8461028713351193  0.5126390941121235  0.9971575523563889  1.0000
  C   C9        1.0  0.16787861828034842  0.15502910836898454  0.5661779660737207  1.0000
  C   C10       1.0  0.15553168431231224  0.2385459917440662  0.4474811230597174  1.0000
  C   C11       1.0  0.15217205726691097  0.17357501227962602  0.3298899611712516  1.0000
  C   C12       1.0  0.16113845129726648  0.024168488409091804  0.3287628141718313  1.0000
  C   C13       1.0  0.1717845186342417  0.9389584636801511  0.44566527363230524  1.0000
  C   C14       1.0  0.17369789836042138  0.001980312352076515  0.5655229707220966  1.0000
  Br  Br1       1.0  0.15725253932285255  0.9358352992398812  0.1674069490747334  1.0000
  H   H5        1.0  0.13950828664141057  0.41754760675962266  0.7773316048604944  1.0000
  H   H6        1.0  0.15076642973219556  0.35520247928736914  0.4452593345106286  1.0000
  H   H7        1.0  0.14351587169426283  0.23980869347980782  0.23942817146599782  1.0000
  H   H8        1.0  0.17625349171624904  0.8227191426589453  0.44286370131548586  1.0000
  H   H9        1.0  0.22692261899407917  0.7040193334304027  0.7677796731770761  1.0000
  C   C15       1.0  0.17088113904024516  0.5785633036354172  0.1844688319893668  1.0000
  C   C16       1.0  0.26512552598718697  0.6363908273454482  0.17912184170171508  1.0000
  C   C17       1.0  0.3119797406907906  0.668010199466144  0.05912659381945184  1.0000
  C   C18       1.0  0.2648816378182879  0.6362378922195893  0.943884584594774  1.0000
  C   C19       1.0  0.17069540434791297  0.5784461691065192  0.9472321615302599  1.0000
  C   C20       1.0  0.12410162073717812  0.5504786382902591  0.06799707237831831  1.0000
  C   C21       1.0  0.41444326073687  0.7252011655068464  0.05478544648421457  1.0000
  F   F1        1.0  0.4318907955616964  0.8094149633551846  0.15760577050008906  1.0000
  F   F2        1.0  0.47744301518261345  0.6102265272513161  0.06272169960956586  1.0000
  F   F3        1.0  0.43162535871439084  0.8093953838187952  0.9399624718716293  1.0000
  H   H10       1.0  0.9936694903781105  0.46702499237074413  0.40196696574230417  1.0000
  H   H11       1.0  0.3022998594003643  0.6566756004285705  0.2684901365183445  1.0000
  H   H12       1.0  0.30188865832183215  0.6564138835586069  0.8514764570629434  1.0000
  H   H13       1.0  0.051462220109444345  0.5059113087149409  0.07131331429302956  1.0000
  H   H14       1.0  0.13509938967081436  0.5538610611486443  0.6212316484998781  1.0000
  Zn  Zn1       1.0  0.06497042134949016  0.5785009394292253  0.5658882323536356  1.0000
  Zn  Zn2       1.0  0.2765968397509555  0.5785078152165224  0.5658121544359309  1.0000
  C   C22       1.0  0.17068885826003546  0.5727233139167822  0.8030579918027965  1.0000
  C   C23       1.0  0.17088072626521567  0.5842872603468214  0.32864252021963414  1.0000
  C   C24       1.0  0.17259421666732777  0.8418893234869497  0.5604714710560816  1.0000
  C   C25       1.0  0.16897528372333737  0.3151195181663933  0.5712291115730799  1.0000
  O   O2        1.0  0.2511916673900534  0.5862045904589126  0.376999660724487  1.0000
  O   O3        1.0  0.25099746461611305  0.5708101145182949  0.7546427369014872  1.0000
  O   O4        1.0  0.25253498266531005  0.7881650710724024  0.5587524042882901  1.0000
  O   O5        1.0  0.24965407722169203  0.3688496442335006  0.5728898959777449  1.0000
  O   O6        1.0  0.09191311166105588  0.788159110411472  0.5588104908309508  1.0000
  O   O7        1.0  0.09037560552874725  0.5708058864668493  0.7547007528565464  1.0000
  O   O8        1.0  0.09056980840191486  0.5862003123939992  0.3770561152655243  1.0000
  O   O9        1.0  0.08903221813502027  0.3688453558391158  0.5729464478978505  1.0000
