data_image0
_chemical_formula_structural       NC5OC5NC4H8C7NH5C7ONH5Zn2C4O8
_chemical_formula_sum              "N4 C32 O10 H18 Zn2"
_cell_length_a       19.189071930511275
_cell_length_b       9.275154477615127
_cell_length_c       9.273042158839658
_cell_angle_alpha    86.38948304707893
_cell_angle_beta     90.07135709723086
_cell_angle_gamma    89.42495848434854

_space_group_name_H-M_alt    "P 1"
_space_group_IT_number       1

loop_
  _space_group_symop_operation_xyz
  'x, y, z'

loop_
  _atom_site_type_symbol
  _atom_site_label
  _atom_site_symmetry_multiplicity
  _atom_site_fract_x
  _atom_site_fract_y
  _atom_site_fract_z
  _atom_site_occupancy
  N   N1        1.0  0.6475123418470897  0.5610424459646445  0.41580940676367895  1.0000
  C   C1        1.0  0.5927960189382523  0.6120304833660415  0.39571070070088943  1.0000
  C   C2        1.0  0.5247359785843091  0.6754511017989568  0.3707109273476993  1.0000
  C   C3        1.0  0.5144435818975008  0.7818740896519095  0.25857394581315774  1.0000
  C   C4        1.0  0.44833032565700315  0.8435616713645937  0.23442960112222555  1.0000
  C   C5        1.0  0.3918501323095494  0.7986954806924993  0.32091753995040895  1.0000
  O   O1        1.0  0.3265447958788987  0.8643885012065611  0.29427535717519215  1.0000
  C   C6        1.0  0.2619096392061316  0.7984784409452405  0.32029048325751086  1.0000
  C   C7        1.0  0.20476059493523313  0.8849738345596522  0.35421795061510064  1.0000
  C   C8        1.0  0.1392739348064204  0.823613131903022  0.3793077163848204  1.0000
  C   C9        1.0  0.1302804015368459  0.6749422062692529  0.36923929706963077  1.0000
  C   C10       1.0  0.06286497777780839  0.6117500945776551  0.39489976967510043  1.0000
  N   N2        1.0  0.0086669564851321  0.560945837216829  0.41553013256512583  1.0000
  C   C11       1.0  0.18695627365340814  0.5880821516036352  0.33318233488896615  1.0000
  C   C12       1.0  0.25243390042433683  0.6494871525144108  0.3081411744491862  1.0000
  C   C13       1.0  0.4026212337718916  0.6932935358869017  0.4348547630102763  1.0000
  C   C14       1.0  0.4687256487962577  0.6316021143754134  0.4590672139930924  1.0000
  H   H1        1.0  0.5574691892805677  0.817247140990556  0.19002325587494862  1.0000
  H   H2        1.0  0.4408334258057315  0.9259545880601309  0.14766583023316504  1.0000
  H   H3        1.0  0.21125203859455574  4.294522406489087e-05  0.36197316082861475  1.0000
  H   H4        1.0  0.09571975544483491  0.8920271596435779  0.40633123991965436  1.0000
  H   H5        1.0  0.1804562119643852  0.4731646787782477  0.3236798476563636  1.0000
  H   H6        1.0  0.2952750783486094  0.5812649480084002  0.2773296253957769  1.0000
  H   H7        1.0  0.3602950447414947  0.6603665077544913  0.5061379210266909  1.0000
  H   H8        1.0  0.47622443475735304  0.5503852943128987  0.5470470519399385  1.0000
  C   C15       1.0  0.8301083619387994  0.1375867664077974  0.41400022568013517  1.0000
  C   C16       1.0  0.8108862773073834  0.21943306296017218  0.28692630660224605  1.0000
  C   C17       1.0  0.7860008186098408  0.15213423611987387  0.1665888494842793  1.0000
  C   C18       1.0  0.7799281101187084  0.0020712847364456866  0.17190816685437468  1.0000
  C   C19       1.0  0.7997939444550272  0.9189866440268898  0.29608470048656543  1.0000
  C   C20       1.0  0.8260776917982263  0.9843906126549336  0.41735175664684665  1.0000
  C   C21       1.0  0.765850473095749  0.23754646766542886  0.03798389699658266  1.0000
  N   N3        1.0  0.7496551826447657  0.3062023411314946  0.9346184567294727  1.0000
  H   H9        1.0  0.843881368050436  0.2179789119862716  0.767802798190985  1.0000
  H   H10       1.0  0.8137291157000845  0.336346678739711  0.2826472718340051  1.0000
  H   H11       1.0  0.7604307476003845  0.9489761102861861  0.07942156041936176  1.0000
  H   H12       1.0  0.7961344939924131  0.8025186910056414  0.29596067868706144  1.0000
  H   H13       1.0  0.8383078162200969  0.6881127994836724  0.6544072226598947  1.0000
  C   C22       1.0  0.8277810001517901  0.5565326606433751  0.9923936854488864  1.0000
  C   C23       1.0  0.7637307332907095  0.5657312447664364  0.06516033065053327  1.0000
  C   C24       1.0  0.7008725204540486  0.5888759439303376  0.9890442309294175  1.0000
  C   C25       1.0  0.7024592148010393  0.6010804182626897  0.8375925632300398  1.0000
  C   C26       1.0  0.7653787195965432  0.5897652254567476  0.7638089913081851  1.0000
  C   C27       1.0  0.828405071104045  0.5654446567655756  0.8389582813719881  1.0000
  C   C28       1.0  0.6342326641514436  0.5988473871148097  0.0689951449870436  1.0000
  O   O2        1.0  0.6298425938208849  0.5430523641838122  0.19614853646609062  1.0000
  N   N4        1.0  0.574607441960902  0.6720114705978991  0.005794030987671397  1.0000
  H   H14       1.0  0.9965951575712592  0.6115614100505715  0.09244095874967284  1.0000
  H   H15       1.0  0.6550017508329895  0.615348996292102  0.7750625011201913  1.0000
  H   H16       1.0  0.9422232417715998  0.5958194205711511  0.5560687028228992  1.0000
  H   H17       1.0  0.577667150502174  0.7342730018693868  0.9083720298916761  1.0000
  H   H18       1.0  0.5275066283033721  0.6718617772989417  0.06207227595234109  1.0000
  Zn  Zn1       1.0  0.751733795482229  0.5610108078906534  0.4157371166956566  1.0000
  Zn  Zn2       1.0  0.9044455848495537  0.560965848397184  0.41561416148390173  1.0000
  C   C29       1.0  0.8283128759440034  0.5580161529737142  0.678916689950038  1.0000
  C   C30       1.0  0.8278681634406919  0.5639623235581808  0.1524347355624025  1.0000
  C   C31       1.0  0.8268317500357054  0.8242661735551969  0.41097427752500115  1.0000
  C   C32       1.0  0.8293492455412769  0.2977105715053179  0.420377218021424  1.0000
  O   O3        1.0  0.8858507743783115  0.5664324341300411  0.20609928821574997  1.0000
  O   O4        1.0  0.8862349844974302  0.5555108271005487  0.6251583978983577  1.0000
  O   O5        1.0  0.8850381764613432  0.77051110191939  0.4087930106907091  1.0000
  O   O6        1.0  0.8870475301754456  0.3514321685030787  0.4224645674297969  1.0000
  O   O7        1.0  0.769131798043285  0.7705444878015915  0.40888671078414474  1.0000
  O   O8        1.0  0.770328597774033  0.5555459444709621  0.6252520279921909  1.0000
  O   O9        1.0  0.7699443866629283  0.5664674830120568  0.20619118510827783  1.0000
  O   O10       1.0  0.7711411425859632  0.3514672082100476  0.42255657235030963  1.0000
