data_image0
_chemical_formula_structural       NC5NC3OH4C7NH5C6NCH6Zn2C4O8
_chemical_formula_sum              "N4 C26 O9 H15 Zn2"
_cell_length_a       13.84702359539666
_cell_length_b       9.275154477615127
_cell_length_c       9.273390368590327
_cell_angle_alpha    86.39388611738053
_cell_angle_beta     89.97653543286326
_cell_angle_gamma    89.43463511314383

_space_group_name_H-M_alt    "P 1"
_space_group_IT_number       1

loop_
  _space_group_symop_operation_xyz
  'x, y, z'

loop_
  _atom_site_type_symbol
  _atom_site_label
  _atom_site_symmetry_multiplicity
  _atom_site_fract_x
  _atom_site_fract_y
  _atom_site_fract_z
  _atom_site_occupancy
  N   N1        1.0  0.8992117923413395  0.5611083274984712  0.4160431680993369  1.0000
  C   C1        1.0  0.8271138382658313  0.5531103916714277  0.4790637210169532  1.0000
  C   C2        1.0  0.7373248495437451  0.5431512719729391  0.5575375880066465  1.0000
  C   C3        1.0  0.6496852103671161  0.5527724063859842  0.48172619905247543  1.0000
  C   C4        1.0  0.5618786598077793  0.5432630536162961  0.5566563669989788  1.0000
  C   C5        1.0  0.47197047546785403  0.5531687671642216  0.4786034333607644  1.0000
  N   N2        1.0  0.3996959290250336  0.5611322027858989  0.4158550974422286  1.0000
  C   C6        1.0  0.561706561783419  0.5241038591474343  0.7076231584236569  1.0000
  C   C7        1.0  0.6489660245579816  0.5144737278767788  0.7835025344448646  1.0000
  C   C8        1.0  0.7370883575209723  0.5239218128394603  0.7090567456147681  1.0000
  O   O1        1.0  0.8240682831301246  0.5142752605052804  0.7850674436121566  1.0000
  H   H1        1.0  0.6498231165591933  0.5676154196771761  0.36477011973681295  1.0000
  H   H2        1.0  0.4941950105573438  0.5166194886455107  0.766596648491199  1.0000
  H   H3        1.0  0.6480495946324158  0.4996601627839183  0.900227348990146  1.0000
  H   H4        1.0  0.8256803353180316  0.5004111326010066  0.894310170393171  1.0000
  C   C9        1.0  0.1522533439534548  0.1377133816477425  0.4142801615120888  1.0000
  C   C10       1.0  0.1257677674063955  0.21954122680442814  0.28720702943586907  1.0000
  C   C11       1.0  0.09142588840158061  0.15222269780144207  0.16686863071154165  1.0000
  C   C12       1.0  0.0830040320788559  0.0021582248471225867  0.17218617903316663  1.0000
  C   C13       1.0  0.11038517862662078  0.9190919757387557  0.2963622167532194  1.0000
  C   C14       1.0  0.1466636762411846  0.9845162010068617  0.4176305262467989  1.0000
  C   C15       1.0  0.0636557722691089  0.23761602326827605  0.03826429884247306  1.0000
  N   N3        1.0  0.04133630232659048  0.30625670123182025  0.9348993575012918  1.0000
  H   H5        1.0  0.17091616656169029  0.21814364288830101  0.768070509517226  1.0000
  H   H6        1.0  0.1297124626571311  0.3364553853912764  0.28292890220706357  1.0000
  H   H7        1.0  0.05609556370977287  0.9490477842188946  0.07969875516528346  1.0000
  H   H8        1.0  0.10531410435675337  0.8026227903527741  0.29623727667264066  1.0000
  H   H9        1.0  0.1633281853566162  0.6882649274536012  0.6546785593699306  1.0000
  C   C16       1.0  0.14953294743409629  0.556618553720982  0.9926917441637996  1.0000
  C   C17       1.0  0.23824893208049946  0.5537579413511893  0.06624956073337727  1.0000
  C   C18       1.0  0.3253293655869134  0.5643006040176453  0.9908437140107289  1.0000
  C   C19       1.0  0.3259055117116223  0.5780945936539537  0.8392700494217008  1.0000
  C   C20       1.0  0.23779420515077887  0.5785236555013493  0.7648927892788215  1.0000
  C   C21       1.0  0.14938409042898448  0.5656110318396947  0.839218890412992  1.0000
  N   N4        1.0  0.4146072157552836  0.5902974713895546  0.7584966743772292  1.0000
  C   C22       1.0  0.5099560684020634  0.5904719538721226  0.8254497094444067  1.0000
  H   H10       1.0  0.39187611332280825  0.5629770368911571  0.05193446253035594  1.0000
  H   H11       1.0  0.9250639291084701  0.4535847083058664  0.7433692080065561  1.0000
  H   H12       1.0  0.411410717219274  0.5998530003766738  0.6456598249359207  1.0000
  H   H13       1.0  0.5156130485356929  0.6829643857551735  0.895281826863488  1.0000
  H   H14       1.0  0.5224162102680032  0.4874076288241725  0.8905914525083123  1.0000
  H   H15       1.0  0.5664787255952677  0.6013747354142889  0.7405809982782748  1.0000
  Zn  Zn1       1.0  0.04364072542668439  0.5611114457653599  0.4159971907135342  1.0000
  Zn  Zn2       1.0  0.2552670476857686  0.5611174118217128  0.41591279124455727  1.0000
  C   C23       1.0  0.1494479686632615  0.5581672693128462  0.6791844158544685  1.0000
  C   C24       1.0  0.1494621033684993  0.5640634090856224  0.1527257138487743  1.0000
  C   C25       1.0  0.14771627757040218  0.8243914091784486  0.41125352050299796  1.0000
  C   C26       1.0  0.15119373366929367  0.29783753774066324  0.4206566792200639  1.0000
  O   O2        1.0  0.2297494553719397  0.5665579443708162  0.2064025219577363  1.0000
  O   O3        1.0  0.22978010580758834  0.5556761700022284  0.6254431312836588  1.0000
  O   O4        1.0  0.22838066045443983  0.7706555456975404  0.40908704399509066  1.0000
  O   O5        1.0  0.23114882846228268  0.3515785778397269  0.42275850124430825  1.0000
  O   O6        1.0  0.06775887243248357  0.7706502797467991  0.4091514807350091  1.0000
  O   O7        1.0  0.06915830636001027  0.5556726355302963  0.6255074980249857  1.0000
  O   O8        1.0  0.06912765662502252  0.5665543412459411  0.20646515557442435  1.0000
  O   O9        1.0  0.07052702976048407  0.35157496555008194  0.42282124288421963  1.0000
