data_image0
_chemical_formula_structural       NC9NC3SH6C6NO2H5C8H6Zn2C4O8
_chemical_formula_sum              "N3 C30 S1 H17 O10 Zn2"
_cell_length_a       16.77567553997237
_cell_length_b       9.273392599741053
_cell_length_c       9.275144076552241
_cell_angle_alpha    86.08729211106984
_cell_angle_beta     90.85075607413872
_cell_angle_gamma    90.29770283283837

_space_group_name_H-M_alt    "P 1"
_space_group_IT_number       1

loop_
  _space_group_symop_operation_xyz
  'x, y, z'

loop_
  _atom_site_type_symbol
  _atom_site_label
  _atom_site_symmetry_multiplicity
  _atom_site_fract_x
  _atom_site_fract_y
  _atom_site_fract_z
  _atom_site_occupancy
  N   N1        1.0  0.7345860234162561  0.5875560668793662  0.42112885349456874  1.0000
  C   C1        1.0  0.679727982203836  0.642660647409351  0.467426818747993  1.0000
  C   C2        1.0  0.6116483587941868  0.711041785120341  0.524879052624118  1.0000
  C   C3        1.0  0.6136900896167177  0.8096127450928484  0.6306076537746176  1.0000
  C   C4        1.0  0.5379315298479079  0.8581361837563479  0.6656935898064882  1.0000
  C   C5        1.0  0.47592479665717535  0.7975618883494622  0.5871776016754213  1.0000
  C   C6        1.0  0.3893219790517078  0.8265906187389307  0.5992869841826748  1.0000
  C   C7        1.0  0.3327244565340758  0.7377519622920676  0.534391241090629  1.0000
  C   C8        1.0  0.2509789119541234  0.7645398646608006  0.5453227947216335  1.0000
  C   C9        1.0  0.1937240070848436  0.6727268928655652  0.47887161211402834  1.0000
  N   N2        1.0  0.1477080554137955  0.5989224227484893  0.425454678561965  1.0000
  C   C10       1.0  0.2249982856516265  0.8805132984554139  0.6209720260196687  1.0000
  C   C11       1.0  0.2805008890635334  0.9695246206940642  0.6853557857452017  1.0000
  C   C12       1.0  0.3620879180477151  0.9431424163119253  0.6747521346303443  1.0000
  S   S1        1.0  0.5166617036933193  0.6833989152698652  0.4746919532713294  1.0000
  H   H1        1.0  0.6681151668408145  0.8453556039232113  0.6814898597071062  1.0000
  H   H2        1.0  0.5295958076090846  0.9341180518019527  0.7474290860339474  1.0000
  H   H3        1.0  0.3517803190522774  0.6470606277889476  0.4759714266381261  1.0000
  H   H4        1.0  0.16193033526858522  0.902184944933603  0.6299980304306334  1.0000
  H   H5        1.0  0.2602666983550194  0.05953438197358053  0.7434216820633419  1.0000
  H   H6        1.0  0.4033376070681742  0.015276022259548931  0.7245951185978958  1.0000
  C   C13       1.0  0.9435768997030943  0.16977112416821916  0.42241081302213435  1.0000
  C   C14       1.0  0.9328467276202784  0.2518923161266684  0.2906270907739763  1.0000
  C   C15       1.0  0.9151027454095847  0.18541212636146054  0.1635477007976438  1.0000
  C   C16       1.0  0.9075044379473114  0.03479577774514864  0.1647063792131629  1.0000
  C   C17       1.0  0.9194736345665929  0.9515332079375267  0.2954979306286116  1.0000
  C   C18       1.0  0.9387249271079443  0.016696560156408413  0.42418524593457696  1.0000
  N   N3        1.0  0.88850145806132  0.9668336717361227  0.033387221986755485  1.0000
  O   O1        1.0  0.8774793120672943  0.04872470726600088  0.9053036596262326  1.0000
  O   O2        1.0  0.8814827426387367  0.832708937708915  0.03354384451603496  1.0000
  H   H7        1.0  0.9288983952187138  0.24834642782239721  0.7760303163089  1.0000
  H   H8        1.0  0.9363128224867835  0.3687999745971031  0.2864047119994849  1.0000
  H   H9        1.0  0.9065220672548856  0.2523935156019146  0.06439011472442945  1.0000
  H   H10       1.0  0.9156278228576435  0.8348324950854643  0.2964837008960343  1.0000
  H   H11       1.0  0.9315617776009635  0.7201033922343087  0.6632045736073715  1.0000
  C   C19       1.0  0.9392901448202454  0.5902313031306985  0.999986700342095  1.0000
  C   C20       1.0  0.8867764713877003  0.682846782639493  0.06561323228187742  1.0000
  C   C21       1.0  0.840618307077175  0.78278313521286  0.9824128216257115  1.0000
  C   C22       1.0  0.8461375518449155  0.7921515511697154  0.8320599954195098  1.0000
  C   C23       1.0  0.8969969056581585  0.6993847880727795  0.7646600802216517  1.0000
  C   C24       1.0  0.9430116804341868  0.5962364534949915  0.8466094339694802  1.0000
  C   C25       1.0  0.7987988768217976  0.8960201411421045  0.7464858522953712  1.0000
  C   C26       1.0  0.7591670282393689  0.9829826103647832  0.6748240981797362  1.0000
  H   H12       1.0  0.10609320617381512  0.40549018596222797  0.1199293786877189  1.0000
  H   H13       1.0  0.8828029566137299  0.6803129441255455  0.18223652423069492  1.0000
  H   H14       1.0  0.801149500858899  0.853811448368696  0.035593321980429846  1.0000
  H   H15       1.0  0.8992479557831907  0.7054398268928617  0.6476119544251189  1.0000
  H   H16       1.0  0.05361836906753227  0.4672243181650575  0.5776688965318243  1.0000
  H   H17       1.0  0.724378494993875  0.05931710015263427  0.611918477378506  1.0000
  Zn  Zn1       1.0  0.8538041794853835  0.5908323606561312  0.4223855183465728  1.0000
  Zn  Zn2       1.0  0.028490013810930748  0.5956344490757151  0.4242098271120286  1.0000
  C   C27       1.0  0.9423393621557608  0.589356469498142  0.6865675173077664  1.0000
  C   C28       1.0  0.9399567289025409  0.5971122131829214  0.16002799336946563  1.0000
  C   C29       1.0  0.9396126978558309  0.856568794470344  0.41810549223035814  1.0000
  C   C30       1.0  0.9426833438578549  0.32989815457264776  0.4284900910477669  1.0000
  O   O3        1.0  0.006472840395281176  0.601237585799951  0.21443161579256473  1.0000
  O   O4        1.0  0.008405761369334686  0.5888746800612945  0.6335480857856132  1.0000
  O   O5        1.0  0.00620305839974322  0.8046519979027256  0.4167630949309191  1.0000
  O   O6        1.0  0.008675483222223779  0.3854602758690229  0.43121649796255923  1.0000
  O   O7        1.0  0.8736186504623462  0.8010065322256226  0.415378846865916  1.0000
  O   O8        1.0  0.875821343164809  0.5852309463850619  0.6321637644895908  1.0000
  O   O9        1.0  0.8738884149133073  0.5975937895803344  0.2130455612704196  1.0000
  O   O10       1.0  0.8760910582711543  0.38181647010170217  0.42983055149498783  1.0000
