data_image0
_chemical_formula_structural       NC5NC3BrH3C7NH5C6BrH4Zn2C4O8
_chemical_formula_sum              "N3 C25 Br2 H12 Zn2 O8"
_cell_length_a       13.839083392302014
_cell_length_b       9.275154477615127
_cell_length_c       9.276567756262418
_cell_angle_alpha    86.34818767424132
_cell_angle_beta     90.18696188566506
_cell_angle_gamma    89.45968127068964

_space_group_name_H-M_alt    "P 1"
_space_group_IT_number       1

loop_
  _space_group_symop_operation_xyz
  'x, y, z'

loop_
  _atom_site_type_symbol
  _atom_site_label
  _atom_site_symmetry_multiplicity
  _atom_site_fract_x
  _atom_site_fract_y
  _atom_site_fract_z
  _atom_site_occupancy
  N   N1        1.0  0.8960966542222468  0.5629924764434324  0.41681051704642913  1.0000
  C   C1        1.0  0.8245201601411989  0.49938124021483765  0.4190217821604698  1.0000
  C   C2        1.0  0.7353410164509081  0.4202268672682581  0.4217732028532153  1.0000
  C   C3        1.0  0.6472743438208499  0.49639056216038974  0.41912593288526856  1.0000
  C   C4        1.0  0.5597279864987712  0.42169888782340115  0.4217219789138573  1.0000
  C   C5        1.0  0.4694431488932148  0.5002128568724209  0.418992858124164  1.0000
  N   N2        1.0  0.3968658277763785  0.5633319308478164  0.4167986619795778  1.0000
  C   C6        1.0  0.5601845545618739  0.27053216460746743  0.42697616483299794  1.0000
  C   C7        1.0  0.6478069930571334  0.19424725891323136  0.4296275564723808  1.0000
  C   C8        1.0  0.735554159513913  0.26822514924532176  0.4270563400056281  1.0000
  Br  Br1       1.0  0.8536941288482496  0.1581872241060529  0.4308810781686552  1.0000
  H   H1        1.0  0.646865451328702  0.6135319769119792  0.41505418413052564  1.0000
  H   H2        1.0  0.4928840878870712  0.21170759024121172  0.42902049561678035  1.0000
  H   H3        1.0  0.6474510192550388  0.07735492818619781  0.43369027031882457  1.0000
  C   C9        1.0  0.14927850659432695  0.13975846275475856  0.41513711167104694  1.0000
  C   C10       1.0  0.12248676046105822  0.221675310944383  0.28809081300622763  1.0000
  C   C11       1.0  0.08784965645797205  0.15443523229357914  0.1677745649716587  1.0000
  C   C12       1.0  0.07943517605120842  0.004361029004194887  0.17308763469987554  1.0000
  C   C13       1.0  0.10711636722014961  0.9212087509298706  0.297237978735673  1.0000
  C   C14       1.0  0.14369332447747007  0.98655497283401  0.41848455483928504  1.0000
  C   C15       1.0  0.05976913079487445  0.23991802486986738  0.03919704992063089  1.0000
  N   N3        1.0  0.03720017143655662  0.3086306118447304  0.9358536626399618  1.0000
  H   H4        1.0  0.1687623337431552  0.2199062171605992  0.7688333581273641  1.0000
  H   H5        1.0  0.12642390675214799  0.3385955138302654  0.2838152921255681  1.0000
  H   H6        1.0  0.05229951564912216  0.9513105579531514  0.08061705378313122  1.0000
  H   H7        1.0  0.10204211415260467  0.8047364736932625  0.29711128860992075  1.0000
  H   H8        1.0  0.16091029927308131  0.6901170345102228  0.6554710024484898  1.0000
  C   C16       1.0  0.1455909074535486  0.5590125801246137  0.9936677017416954  1.0000
  C   C17       1.0  0.059495175342916914  0.5936646045513057  0.06441777575574292  1.0000
  C   C18       1.0  0.9776149722548317  0.6401961319683982  0.9859028691260142  1.0000
  C   C19       1.0  0.9802920900352958  0.6530181787774012  0.835457638552791  1.0000
  C   C20       1.0  0.06450374918959456  0.6168073462007886  0.7629743899810247  1.0000
  C   C21       1.0  0.14738095017143604  0.5673008789324587  0.8399539398332041  1.0000
  Br  Br2       1.0  0.8682165087814119  0.7178634134295911  0.7284666798941474  1.0000
  H   H9        1.0  0.2793840186540075  0.4281427010667964  0.28398106639607246  1.0000
  H   H10       1.0  0.9122892078088798  0.6676419677781082  0.0423304622719276  1.0000
  H   H11       1.0  0.06430309468889961  0.624172273955333  0.6459530444833981  1.0000
  H   H12       1.0  0.3064689058616843  0.5525202729333842  0.5604966012134494  1.0000
  Zn  Zn1       1.0  0.04060786656337845  0.5630866514842994  0.4168154082305971  1.0000
  Zn  Zn2       1.0  0.252354710534908  0.5632260537965195  0.4168055494237488  1.0000
  C   C22       1.0  0.14707829589777144  0.5599902461624564  0.6799649982341824  1.0000
  C   C23       1.0  0.14588658176957425  0.566324281255639  0.1536561079327552  1.0000
  C   C24       1.0  0.14473191965638432  0.8264361484783866  0.4121097343435773  1.0000
  C   C25       1.0  0.14823289734460077  0.29987664736380215  0.4215114418018487  1.0000
  O   O1        1.0  0.226342678018523  0.568824767174213  0.20734591233143895  1.0000
  O   O2        1.0  0.2273331610315694  0.5575944716024166  0.626267292133297  1.0000
  O   O3        1.0  0.22543735246335572  0.7727529213515649  0.4099722773979717  1.0000
  O   O4        1.0  0.2282384140353324  0.3536663266335789  0.42364081907005624  1.0000
  O   O5        1.0  0.06472409080412245  0.7726463786011641  0.40998013858008053  1.0000
  O   O6        1.0  0.06661988777986472  0.5574896603818471  0.6262750833327089  1.0000
  O   O7        1.0  0.065629401498146  0.5687198887426816  0.20735197089962965  1.0000
  O   O8        1.0  0.06752513780752745  0.35356143894745773  0.42364698563074676  1.0000
