data_image0
_chemical_formula_structural       NC5OC5NC4H8C7NH5C9H10Zn2C4O8
_chemical_formula_sum              "N3 C34 O9 H23 Zn2"
_cell_length_a       19.189071930511275
_cell_length_b       9.275154477615127
_cell_length_c       10.297187173949778
_cell_angle_alpha    85.79368962705624
_cell_angle_beta     89.95213100257865
_cell_angle_gamma    89.42495848434854

_space_group_name_H-M_alt    "P 1"
_space_group_IT_number       1

loop_
  _space_group_symop_operation_xyz
  'x, y, z'

loop_
  _atom_site_type_symbol
  _atom_site_label
  _atom_site_symmetry_multiplicity
  _atom_site_fract_x
  _atom_site_fract_y
  _atom_site_fract_z
  _atom_site_occupancy
  N   N1        1.0  0.6490258709074325  0.5775245433531597  0.5723595896104829  1.0000
  C   C1        1.0  0.5943287502182215  0.6287216899565207  0.5542470436237268  1.0000
  C   C2        1.0  0.526292594543075  0.6924024088475866  0.5317177552653853  1.0000
  C   C3        1.0  0.5161073330589477  0.7999920824884722  0.4306621834034374  1.0000
  C   C4        1.0  0.4500171442242842  0.8619308646831418  0.4089037899940111  1.0000
  C   C5        1.0  0.39345432066216773  0.816164843752754  0.4868449651339093  1.0000
  O   O1        1.0  0.3281744380613992  0.8821350525376073  0.4628355707382635  1.0000
  C   C6        1.0  0.2635144266460892  0.8159543279739652  0.48627987436881526  1.0000
  C   C7        1.0  0.2063329682149192  0.902096736396115  0.5168546193702466  1.0000
  C   C8        1.0  0.14082233742893194  0.8404749969900953  0.5394650070679068  1.0000
  C   C9        1.0  0.1318384234850183  0.691908824325072  0.5303915519265361  1.0000
  C   C10       1.0  0.0643984838178847  0.6284497381858767  0.5535162490416874  1.0000
  N   N2        1.0  0.010180752362875108  0.5774308402055659  0.5721079133708085  1.0000
  C   C11       1.0  0.1885487442722904  0.60542391035574  0.4978977494101087  1.0000
  C   C12       1.0  0.2540502952630651  0.6670894423205769  0.4753311638493112  1.0000
  C   C13       1.0  0.4041165669786126  0.7095774832435991  0.5895228781213435  1.0000
  C   C14       1.0  0.4701978495286783  0.6476341526645928  0.611342647538752  1.0000
  H   H1        1.0  0.5591984334841845  0.8360783429273593  0.36888569291441065  1.0000
  H   H2        1.0  0.44260313811647123  0.9452264814248059  0.33071404059905163  1.0000
  H   H3        1.0  0.21281700257887207  0.017085160979854123  0.5238434574173527  1.0000
  H   H4        1.0  0.09724233990609901  0.9086078689476383  0.563818058016547  1.0000
  H   H5        1.0  0.1820577612197861  0.4906053024779606  0.48933430077558526  1.0000
  H   H6        1.0  0.29692091041230634  0.5991878046417884  0.4475644211839078  1.0000
  H   H7        1.0  0.3617222743174837  0.6759088171052547  0.6537618133851351  1.0000
  H   H8        1.0  0.47761257992093936  0.5655019804572938  0.6906282918852725  1.0000
  C   C15       1.0  0.8316236194831749  0.1540876867201071  0.5707291923365647  1.0000
  C   C16       1.0  0.8125229407420335  0.237256074641238  0.45621275551594787  1.0000
  C   C17       1.0  0.7877524519472116  0.17120925226061323  0.347767081492496  1.0000
  C   C18       1.0  0.781674661402534  0.021090958100054  0.35256074234723056  1.0000
  C   C19       1.0  0.8014218579985033  0.936714370746305  0.4644661142086093  1.0000
  C   C20       1.0  0.8275897473039481  0.0008566632615214533  0.5737495240221442  1.0000
  C   C21       1.0  0.7677249750663042  0.25795950421898806  0.23187090843633462  1.0000
  N   N3        1.0  0.7516284395241982  0.32769080336954115  0.13872007154014798  1.0000
  H   H9        1.0  0.8450586040982788  0.2307988304788966  0.889568890017378  1.0000
  H   H10       1.0  0.8153698673066376  0.35421420998053194  0.4523565762287562  1.0000
  H   H11       1.0  0.7622656602007902  0.9689580247216097  0.269213689707132  1.0000
  H   H12       1.0  0.7977625260257969  0.8202477080618296  0.4643543482800035  1.0000
  H   H13       1.0  0.8395933899260555  0.7021124983179489  0.7873790987897687  1.0000
  C   C22       1.0  0.829699058819588  0.5774200228935396  0.19078593507417543  1.0000
  C   C23       1.0  0.7588878537834072  0.6170396660344039  0.18749449454521327  1.0000
  C   C24       1.0  0.7226091874949072  0.6373377351823455  0.0691917879153936  1.0000
  C   C25       1.0  0.7586133573901507  0.6171926981709802  0.952272505842719  1.0000
  C   C26       1.0  0.8295143109205608  0.5775243317929013  0.9536927450547177  1.0000
  C   C27       1.0  0.8645941589679225  0.5578956227376082  0.07333967467281899  1.0000
  C   C28       1.0  0.6460217670728958  0.6801889159384669  0.07506402870830264  1.0000
  C   C29       1.0  0.597509977233465  0.6222104997226563  0.9746193398201571  1.0000
  C   C30       1.0  0.6174747632544728  0.781266600896481  0.9640727451776635  1.0000
  H   H14       1.0  0.856986700754954  0.5621663875128085  0.5195916884606351  1.0000
  H   H15       1.0  0.7315508954433703  0.6323353832411922  0.277646177376514  1.0000
  H   H16       1.0  0.7320349831902079  0.6320602789744622  0.8597368849146568  1.0000
  H   H17       1.0  0.9192263576864852  0.5273275186129891  0.07515174047634843  1.0000
  H   H18       1.0  0.9634236925145909  0.5025835090598588  0.7491599644731837  1.0000
  H   H19       1.0  0.6214054181678518  0.6939632290810915  0.1712075288229027  1.0000
  H   H20       1.0  0.6214203536564122  0.557128864518087  0.8998457961031696  1.0000
  H   H21       1.0  0.5434407774316306  0.6027160120168165  0.00970608090600833  1.0000
  H   H22       1.0  0.6535129981424448  0.812802669478747  0.8828936494227119  1.0000
  H   H23       1.0  0.5750734781711893  0.8547338356103824  0.9929930509514215  1.0000
  Zn  Zn1       1.0  0.7532473936082003  0.57749365739318  0.5722944432683574  1.0000
  Zn  Zn2       1.0  0.9059593004464193  0.5774499771395842  0.5721836385269845  1.0000
  C   C31       1.0  0.8295750334075255  0.5717608525493527  0.8094665332751906  1.0000
  C   C32       1.0  0.8296333195592456  0.5831846006946011  0.3350116812935542  1.0000
  C   C33       1.0  0.8283498985582798  0.8407985761729807  0.5680022692728517  1.0000
  C   C34       1.0  0.830858410533868  0.31414514487095135  0.5764760084090994  1.0000
  O   O2        1.0  0.8875646596079344  0.5850963792154322  0.3833730869858345  1.0000
  O   O3        1.0  0.8875485024081117  0.5698148340024766  0.7610206515396392  1.0000
  O   O4        1.0  0.8865584089571187  0.7870661986830343  0.5660365558720952  1.0000
  O   O5        1.0  0.888554700923151  0.3678450248503311  0.5783570853317364  1.0000
  O   O6        1.0  0.770651941018384  0.787098609698908  0.5661209964945915  1.0000
  O   O7        1.0  0.7716420262309148  0.569848977234847  0.7611050290799142  1.0000
  O   O8        1.0  0.771658184094645  0.5851304719918251  0.3834559026002702  1.0000
  O   O9        1.0  0.7726482254325525  0.36787910732774254  0.5784399982987996  1.0000
