data_image0
_chemical_formula_structural       NC9NC3SH6C9H10C6NO2H3Zn2C4O8
_chemical_formula_sum              "N3 C31 S1 H19 O10 Zn2"
_cell_length_a       16.77567553997237
_cell_length_b       9.272676604525723
_cell_length_c       9.273395971720356
_cell_angle_alpha    85.21432368177585
_cell_angle_beta     90.29524247886945
_cell_angle_gamma    91.44448428757873

_space_group_name_H-M_alt    "P 1"
_space_group_IT_number       1

loop_
  _space_group_symop_operation_xyz
  'x, y, z'

loop_
  _atom_site_type_symbol
  _atom_site_label
  _atom_site_symmetry_multiplicity
  _atom_site_fract_x
  _atom_site_fract_y
  _atom_site_fract_z
  _atom_site_occupancy
  N   N1        1.0  0.7610062566345768  0.6156226041857286  0.42260849204430184  1.0000
  C   C1        1.0  0.7064989076155388  0.6699229738542619  0.46909968063782337  1.0000
  C   C2        1.0  0.6388544726822617  0.7373061474995779  0.5267916912223782  1.0000
  C   C3        1.0  0.6413951754320197  0.8340355247342836  0.6328980783557498  1.0000
  C   C4        1.0  0.5659772586256032  0.8819507598020319  0.6681461871715293  1.0000
  C   C5        1.0  0.5037397627633091  0.8227463920246875  0.5893790365179672  1.0000
  C   C6        1.0  0.41739047981559363  0.8515674810540509  0.6015729764528157  1.0000
  C   C7        1.0  0.3601729862176938  0.7638539402964934  0.5363793962146293  1.0000
  C   C8        1.0  0.2786627667086558  0.7904545054504792  0.5473886389271061  1.0000
  C   C9        1.0  0.22076367624771592  0.6997934601880671  0.48063051374292787  1.0000
  N   N2        1.0  0.1742298900479117  0.6269149687469262  0.426966842763451  1.0000
  C   C10       1.0  0.2535422742468935  0.9051186827240609  0.6234139539582657  1.0000
  C   C11       1.0  0.3096696283861696  0.9930139271966489  0.6880952343040085  1.0000
  C   C12       1.0  0.3910239868018915  0.9668133671067124  0.6774152984982469  1.0000
  S   S1        1.0  0.5438429346972684  0.7105409778266931  0.47646982960333256  1.0000
  H   H1        1.0  0.6959309148011604  0.8688899539234151  0.6839348749910599  1.0000
  H   H2        1.0  0.5580248374272743  0.956508916725866  0.7501732252965443  1.0000
  H   H3        1.0  0.3785520892759071  0.6741734646848132  0.4776665194247085  1.0000
  H   H4        1.0  0.1906636827622646  0.9266355653437012  0.6325030652908858  1.0000
  H   H5        1.0  0.2901066342187233  0.08201892912134444  0.7464521099527439  1.0000
  H   H6        1.0  0.43279303364213517  0.038083552654120556  0.7274961159357856  1.0000
  C   C13       1.0  0.9653647456171341  0.1977378599335646  0.4229198383349948  1.0000
  C   C14       1.0  0.9333088868650066  0.25972606686388344  0.5421350737380053  1.0000
  C   C15       1.0  0.9085442087639799  0.17364107034309859  0.6649552417243763  1.0000
  C   C16       1.0  0.9150360378832083  0.022989976485175753  0.6726933554620789  1.0000
  C   C17       1.0  0.945786791174158  0.959527925467884  0.5523521647870169  1.0000
  C   C18       1.0  0.9698789845745517  0.04478870424794401  0.42666806376100896  1.0000
  C   C19       1.0  0.8874024027374697  0.9371866834507663  0.8110711903453895  1.0000
  C   C20       1.0  0.8471203622835342  0.7901398642175752  0.7962734598596837  1.0000
  C   C21       1.0  0.9312443054134509  0.7992514449426508  0.8582408816353371  1.0000
  H   H7        1.0  0.9833453070488979  0.49949766753676345  0.18655896573440467  1.0000
  H   H8        1.0  0.9291017994645148  0.37613505735234415  0.5419519295567294  1.0000
  H   H9        1.0  0.8848179640232966  0.22550263315842956  0.7554063606692083  1.0000
  H   H10       1.0  0.949589112781798  0.8432176530097456  0.5537327504623104  1.0000
  H   H11       1.0  0.9909784525816131  0.9721994139011867  0.0734292502643985  1.0000
  H   H12       1.0  0.8647256612105495  0.9957514483466585  0.901721342309082  1.0000
  H   H13       1.0  0.8435475348516454  0.7519282571768094  0.6861874894502962  1.0000
  H   H14       1.0  0.8008131030689185  0.7592322516008994  0.8790647341138393  1.0000
  H   H15       1.0  0.9787478911724703  0.7664446114247602  0.7858817884076852  1.0000
  H   H16       1.0  0.9341013702408861  0.7736628035710873  0.9772681806360056  1.0000
  C   C22       1.0  0.9680992094973534  0.6257063972651027  0.0008816207699353669  1.0000
  C   C23       1.0  0.897208487115561  0.6566836215479361  0.07086443224925087  1.0000
  C   C24       1.0  0.8260219023563229  0.6740173425839635  0.9937684215352416  1.0000
  C   C25       1.0  0.8237056399397734  0.6607058588598933  0.8443914663599683  1.0000
  C   C26       1.0  0.894566923581773  0.6321987620925164  0.7729814629857876  1.0000
  C   C27       1.0  0.9671444723521441  0.6168201761955696  0.8487062862937895  1.0000
  N   N3        1.0  0.749889151166936  0.6774871394445544  0.7655575329736521  1.0000
  O   O1        1.0  0.6807621591225076  0.7065891709320317  0.8357384367955514  1.0000
  O   O2        1.0  0.7472865003310544  0.6655319083665074  0.632482613269655  1.0000
  H   H17       1.0  0.141711240641361  0.4688995104878839  0.11842882563552327  1.0000
  H   H18       1.0  0.772488118877149  0.6964661328651724  0.051691248070061535  1.0000
  H   H19       1.0  0.0855467823445415  0.5155064159437381  0.5780490171933446  1.0000
  Zn  Zn1       1.0  0.8802536440710657  0.6188773985250253  0.42387454595495333  1.0000
  Zn  Zn2       1.0  0.05498242159409861  0.6236482845493678  0.4257125916459308  1.0000
  C   C28       1.0  0.9672925548690323  0.6127541654054047  0.688423808755106  1.0000
  C   C29       1.0  0.9679454283675855  0.6297733880582643  0.16116349865561097  1.0000
  C   C30       1.0  0.9690280489166789  0.8847382562637864  0.42020702688346234  1.0000
  C   C31       1.0  0.9662098653758887  0.35778756196416994  0.429380349194906  1.0000
  O   O3        1.0  0.034202444946198174  0.6329425415886805  0.21565306198508227  1.0000
  O   O4        1.0  0.03365063215114228  0.6132049202968859  0.6353288592108075  1.0000
  O   O5        1.0  0.03505116998020852  0.832835473234061  0.41874190740400374  1.0000
  O   O6        1.0  0.03280184767090377  0.41331199847527905  0.4322399049730927  1.0000
  O   O7        1.0  0.9024341583679212  0.8292136829726944  0.41734723199297075  1.0000
  O   O8        1.0  0.9010336298565653  0.6095848636448127  0.6339341144973032  1.0000
  O   O9        1.0  0.901585444391203  0.6293224528698125  0.21425658146782678  1.0000
  O   O10       1.0  0.9001848469357971  0.40969189830621755  0.43084353263981057  1.0000
