data_image0
_chemical_formula_structural       NC9NC3SH6C8NH7C8NH11Zn2C4O8
_chemical_formula_sum              "N4 C32 S1 H24 Zn2 O8"
_cell_length_a       16.77567553997237
_cell_length_b       9.274263428431858
_cell_length_c       9.275652972338538
_cell_angle_alpha    85.89520880153039
_cell_angle_beta     90.8258093540976
_cell_angle_gamma    91.51050711931723

_space_group_name_H-M_alt    "P 1"
_space_group_IT_number       1

loop_
  _space_group_symop_operation_xyz
  'x, y, z'

loop_
  _atom_site_type_symbol
  _atom_site_label
  _atom_site_symmetry_multiplicity
  _atom_site_fract_x
  _atom_site_fract_y
  _atom_site_fract_z
  _atom_site_occupancy
  N   N1        1.0  0.7535245985474682  0.5887758917808714  0.4168347878493295  1.0000
  C   C1        1.0  0.6992991014888469  0.6438886008902115  0.4629799441923803  1.0000
  C   C2        1.0  0.6320044236304958  0.7122798257916864  0.5202425523411087  1.0000
  C   C3        1.0  0.6351720236075573  0.8108575732556169  0.6256969570438489  1.0000
  C   C4        1.0  0.5599718582915353  0.8593900926767959  0.6606485455084505  1.0000
  C   C5        1.0  0.497276575411796  0.7988162090983313  0.5823015616284815  1.0000
  C   C6        1.0  0.4110099926089651  0.8278533770673958  0.594330902172115  1.0000
  C   C7        1.0  0.3533903009281174  0.738998318208316  0.5296811525032907  1.0000
  C   C8        1.0  0.27195509569545007  0.7657940890818815  0.540538851927368  1.0000
  C   C9        1.0  0.2136436479358783  0.673963956842868  0.4743418756352107  1.0000
  N   N2        1.0  0.1667783871393886  0.6001456920893646  0.42112928751543643  1.0000
  C   C10       1.0  0.2473110749341517  0.881792003838774  0.6158672911498113  1.0000
  C   C11       1.0  0.303837990839651  0.9708199763026991  0.6800046030771536  1.0000
  C   C12       1.0  0.3851193406551727  0.9444299676459899  0.6694736816219211  1.0000
  S   S1        1.0  0.5367070757458147  0.6846420020554431  0.470133111494895  1.0000
  H   H1        1.0  0.690002273262954  0.8465986485251413  0.6764792699046085  1.0000
  H   H2        1.0  0.5525039365087612  0.9353771127996128  0.7421726729454236  1.0000
  H   H3        1.0  0.371400755488855  0.648287589850338  0.47151217030747455  1.0000
  H   H4        1.0  0.1844941470382532  0.90346995432285  0.6248335400836234  1.0000
  H   H5        1.0  0.2846413306290946  0.06084895688066539  0.7378215490537656  1.0000
  H   H6        1.0  0.42719969174549927  0.016577856110839395  0.7191170343008011  1.0000
  C   C13       1.0  0.9576332439388339  0.17081010553388465  0.4192621907266214  1.0000
  C   C14       1.0  0.9467702064674315  0.2529970964088055  0.2874209631761113  1.0000
  C   C15       1.0  0.9437332970019422  0.18713626634422043  0.1568534985155976  1.0000
  C   C16       1.0  0.9521325109126082  0.03757201473980954  0.15490443985956892  1.0000
  C   C17       1.0  0.9608517944245152  0.9538155786633916  0.2858398396906139  1.0000
  C   C18       1.0  0.962677364312957  0.018100742352079816  0.41871449200901845  1.0000
  C   C19       1.0  0.94766902088431  0.9665284548570877  0.01422430617700909  1.0000
  C   C20       1.0  0.8647984041517791  0.9250995845973763  0.9813287386673054  1.0000
  N   N3        1.0  0.7993904337104256  0.892399379055175  0.9553745006091376  1.0000
  H   H7        1.0  0.027850425188449268  0.25321319752495364  0.7523009276264581  1.0000
  H   H8        1.0  0.9423521773065661  0.3694787827340898  0.2850143448824729  1.0000
  H   H9        1.0  0.93557281960128  0.25317699095334456  0.056880462340665565  1.0000
  H   H10       1.0  0.964286853077389  0.8374079289059323  0.28397693963630366  1.0000
  H   H11       1.0  0.0068571959248509  0.7233184968810339  0.6448604990327553  1.0000
  H   H12       1.0  0.9845338133388276  0.8684644345769509  0.020185366848383124  1.0000
  H   H13       1.0  0.9708390865666385  0.04138387824607071  0.9247667582264699  1.0000
  C   C21       1.0  0.9583633692415799  0.5915947949605331  0.9957009643085714  1.0000
  C   C22       1.0  0.9072032789743995  0.684540678714513  0.06124959331893499  1.0000
  C   C23       1.0  0.8623895200140077  0.7860782065575648  0.9780110375268207  1.0000
  C   C24       1.0  0.8676504528033266  0.79325035541512  0.8272753546069644  1.0000
  C   C25       1.0  0.9170551993278065  0.7003203852158031  0.7603003611684525  1.0000
  C   C26       1.0  0.961947257839875  0.5973160190827647  0.8422756889126961  1.0000
  C   C27       1.0  0.8070100568122411  0.8832368998651504  0.04990935006282627  1.0000
  C   C28       1.0  0.7246007251179097  0.8104926370403948  0.06989023569122321  1.0000
  N   N4        1.0  0.6710977301941493  0.9064993248310801  0.13747306681698634  1.0000
  H   H14       1.0  0.015535508774354726  0.3788593121688223  0.29305415868804885  1.0000
  H   H15       1.0  0.9033863525086431  0.6804225306987501  0.178040301391982  1.0000
  H   H16       1.0  0.8327545152050234  0.8699845914695594  0.7612744751649463  1.0000
  H   H17       1.0  0.9185317575321955  0.7065559624674489  0.6432914433691166  1.0000
  H   H18       1.0  0.07051550669084206  0.46819025397214104  0.5730173870146964  1.0000
  H   H19       1.0  0.832133445094789  0.9092733439737684  0.15686677993859854  1.0000
  H   H20       1.0  0.8012462453305124  0.9872174242807836  0.9834661809325883  1.0000
  H   H21       1.0  0.6995262059793798  0.78561649293684  0.9625153382811446  1.0000
  H   H22       1.0  0.7296145791014402  0.7073213471673765  0.13820819892882064  1.0000
  H   H23       1.0  0.6144875845238527  0.8565032651810492  0.14132191528023252  1.0000
  H   H24       1.0  0.689813292012294  0.9142339047749409  0.2447823732691041  1.0000
  Zn  Zn1       1.0  0.8727807303811027  0.5920531750942029  0.41808242295176656  1.0000
  Zn  Zn2       1.0  0.0475222303895233  0.5968567198387833  0.4198934973998298  1.0000
  C   C29       1.0  0.9612338114109533  0.5904872491837738  0.6822586421373851  1.0000
  C   C30       1.0  0.9590710689669553  0.5984245194513063  0.15571743829140772  1.0000
  C   C31       1.0  0.9616954927571804  0.8579058087149365  0.4130739546146911  1.0000
  C   C32       1.0  0.9586093180003175  0.33100422550887676  0.4249022031656178  1.0000
  O   O1        1.0  0.025622030570921602  0.6025332636818481  0.21010772611173878  1.0000
  O   O2        1.0  0.02730759683455487  0.5900231931205386  0.6292425036836651  1.0000
  O   O3        1.0  0.02767952276785834  0.8059670474664478  0.41187395374788993  1.0000
  O   O4        1.0  0.02525004461408731  0.3865894172866361  0.42747616734516747  1.0000
  O   O5        1.0  0.8950528565258181  0.8023204760086557  0.4104997523808158  1.0000
  O   O6        1.0  0.8946809405822049  0.5863783544363184  0.6278682243394608  1.0000
  O   O7        1.0  0.8929953667357883  0.5988883630137474  0.208731713777363  1.0000
  O   O8        1.0  0.8926233811717642  0.3829445070301436  0.42610026308752436  1.0000
