data_image0
_chemical_formula_structural       NC5NC3OH4C6NH7C6NCOH5Zn2C4O8
_chemical_formula_sum              "N4 C25 O10 H16 Zn2"
_cell_length_a       13.84702359539666
_cell_length_b       9.274771166103582
_cell_length_c       9.27373355559583
_cell_angle_alpha    86.06900368676713
_cell_angle_beta     89.99675348252173
_cell_angle_gamma    90.59789355945463

_space_group_name_H-M_alt    "P 1"
_space_group_IT_number       1

loop_
  _space_group_symop_operation_xyz
  'x, y, z'

loop_
  _atom_site_type_symbol
  _atom_site_label
  _atom_site_symmetry_multiplicity
  _atom_site_fract_x
  _atom_site_fract_y
  _atom_site_fract_z
  _atom_site_occupancy
  N   N1        1.0  0.9200705180365273  0.5616022594654848  0.40706024128451657  1.0000
  C   C1        1.0  0.8478787170939791  0.5536078291680193  0.4701243653578056  1.0000
  C   C2        1.0  0.7579728691886954  0.5436530745905945  0.5486524876424304  1.0000
  C   C3        1.0  0.6704461231457584  0.5532699919447497  0.4727886847013616  1.0000
  C   C4        1.0  0.5825279909847585  0.5437648071927322  0.5477706576897324  1.0000
  C   C5        1.0  0.4927360391934083  0.5536661790402853  0.46966375969752483  1.0000
  N   N2        1.0  0.42055493488366175  0.5616261242945499  0.40687204055706566  1.0000
  C   C6        1.0  0.5821310811476458  0.5246140102765987  0.698841824577912  1.0000
  C   C7        1.0  0.6692775445317721  0.5149880996888778  0.7747736637287379  1.0000
  C   C8        1.0  0.7575107405694267  0.524432043665175  0.7002764035595401  1.0000
  O   O1        1.0  0.8443774745629601  0.5147897194235851  0.7763396540590546  1.0000
  H   H1        1.0  0.6707581957912272  0.5681064995852205  0.35575174357336836  1.0000
  H   H2        1.0  0.514531709083212  0.5171329201654313  0.757856088016512  1.0000
  H   H3        1.0  0.6681872938784348  0.500181027424701  0.891579179623847  1.0000
  H   H4        1.0  0.8458268463973383  0.500931668106619  0.8856579098860634  1.0000
  C   C9        1.0  0.16735261545475266  0.13802593104179284  0.40775278544467747  1.0000
  C   C10       1.0  0.1451035769512521  0.21994964961457342  0.278880267885357  1.0000
  C   C11       1.0  0.13187099207288155  0.15350688018235892  0.1491866657382046  1.0000
  C   C12       1.0  0.14093788119966777  0.0037528337392675995  0.14742614325509606  1.0000
  C   C13       1.0  0.1614007635464348  0.920490590195282  0.27452888606236026  1.0000
  C   C14       1.0  0.17328199936994593  0.9851915157846207  0.40619196839823646  1.0000
  N   N3        1.0  0.11021499883951713  0.23851491434967875  0.018897449510800298  1.0000
  H   H5        1.0  0.2761018052538209  0.2210784367820153  0.7231230610265337  1.0000
  H   H6        1.0  0.14023415096695446  0.3365361807180445  0.27832849290666783  1.0000
  H   H7        1.0  0.13121381619555894  0.9511935646398175  0.04763982931040589  1.0000
  H   H8        1.0  0.16565587558706854  0.8042824546790882  0.27039975109170267  1.0000
  H   H9        1.0  0.24261522163664018  0.6904328717903853  0.6207571689248716  1.0000
  H   H10       1.0  0.10356125304773456  0.3505879957098106  0.018853142122033706  1.0000
  H   H11       1.0  0.10058233611606074  0.18999830870514245  0.9214812317391888  1.0000
  C   C15       1.0  0.17023023161141418  0.5570640230292311  0.983753750799561  1.0000
  C   C16       1.0  0.08141227203436197  0.548780615482682  0.05775385547825063  1.0000
  C   C17       1.0  0.9935543830003913  0.552186913539626  0.9828311448727067  1.0000
  C   C18       1.0  0.9945215289616886  0.5685653926616538  0.8314529130276305  1.0000
  C   C19       1.0  0.08187231042257738  0.5746962892002736  0.756253327789782  1.0000
  C   C20       1.0  0.1704043649246636  0.5661533661174216  0.8301909951730466  1.0000
  N   N4        1.0  0.9044727382199287  0.5471234742091033  0.06288844791896997  1.0000
  C   C21       1.0  0.8170018266122536  0.4806953652448118  0.016261136163415513  1.0000
  O   O2        1.0  0.8159597235615238  0.4043592683868844  0.9090511403959591  1.0000
  H   H12       1.0  0.398502701684486  0.6572351195946233  0.07979705418677097  1.0000
  H   H13       1.0  0.9278930092200521  0.578166195536002  0.770845694038314  1.0000
  H   H14       1.0  0.3248685632815502  0.627523580340571  0.5449137565178508  1.0000
  H   H15       1.0  0.9043953215638754  0.5854771425059526  0.16623691181188205  1.0000
  H   H16       1.0  0.7510799193979443  0.4927894590684101  0.07668451759889905  1.0000
  Zn  Zn1       1.0  0.06449948263599858  0.5616053740122724  0.40701424786644497  1.0000
  Zn  Zn2       1.0  0.2761258660355599  0.5616113333432686  0.4069298175643512  1.0000
  C   C22       1.0  0.1703290775164997  0.5586888712045825  0.6702068011008404  1.0000
  C   C23       1.0  0.1702985948761495  0.5645296577577996  0.14373740150874714  1.0000
  C   C24       1.0  0.17215505546435295  0.8249974846541464  0.4007439015361856  1.0000
  C   C25       1.0  0.16847253260117645  0.2982193120956027  0.4132003811317819  1.0000
  O   O3        1.0  0.25063260376736607  0.5670311615405002  0.19739734689019794  1.0000
  O   O4        1.0  0.2506145892227474  0.5561907977786144  0.6164823622083859  1.0000
  O   O5        1.0  0.2520880071844087  0.7712383871329003  0.39888916198376867  1.0000
  O   O6        1.0  0.24915911364194535  0.3519835813424861  0.4149904390644912  1.0000
  O   O7        1.0  0.09146616281192443  0.7712331260125103  0.3989536263875326  1.0000
  O   O8        1.0  0.08999275695969433  0.5561872688703131  0.6165467465749987  1.0000
  O   O9        1.0  0.09001077086025068  0.5670275637593434  0.1974599986076777  1.0000
  O   O10       1.0  0.08853728068090017  0.3519799744045129  0.4150531988535236  1.0000
