data_image0
_chemical_formula_structural       NC5NC3F3CH3C6ClH5C6NCH7Zn2C4O8
_chemical_formula_sum              "N3 C26 F3 H15 Cl1 Zn2 O8"
_cell_length_a       13.85151926108384
_cell_length_b       10.30297070629231
_cell_length_c       9.273390368590327
_cell_angle_alpha    86.16779528597041
_cell_angle_beta     89.99084653650657
_cell_angle_gamma    89.9983157295073

_space_group_name_H-M_alt    "P 1"
_space_group_IT_number       1

loop_
  _space_group_symop_operation_xyz
  'x, y, z'

loop_
  _atom_site_type_symbol
  _atom_site_label
  _atom_site_symmetry_multiplicity
  _atom_site_fract_x
  _atom_site_fract_y
  _atom_site_fract_z
  _atom_site_occupancy
  N   N1        1.0  0.9092213333770275  0.4056265059776779  0.4102089183245429  1.0000
  C   C1        1.0  0.8368853051136558  0.3980498229855169  0.4726634643291618  1.0000
  C   C2        1.0  0.7468935960667532  0.3886233938502128  0.5503658541285186  1.0000
  C   C3        1.0  0.6593754471148203  0.39620257924911617  0.4748557274484284  1.0000
  C   C4        1.0  0.5718416065652868  0.3886233818241902  0.5503658340737194  1.0000
  C   C5        1.0  0.48186605298397933  0.3980498384236832  0.47266355837877233  1.0000
  N   N2        1.0  0.4095431477532131  0.4056264728772778  0.41020902375679236  1.0000
  C   C6        1.0  0.5718166531321001  0.3725682713347151  0.7015620682599821  1.0000
  C   C7        1.0  0.6593438039660752  0.3621295746120596  0.7783340253548253  1.0000
  C   C8        1.0  0.6593266817917024  0.34966550098537236  0.9413236825284849  1.0000
  F   F1        1.0  0.7402570355366042  0.2828079989747925  0.9929147516854137  1.0000
  F   F2        1.0  0.5783882208658516  0.2828079723776278  0.9929148509627782  1.0000
  F   F3        1.0  0.6593184534909148  0.4724251241274482  0.9930348074138107  1.0000
  C   C9        1.0  0.7468869799727973  0.37256818577164674  0.7015620878720232  1.0000
  H   H1        1.0  0.659387679458073  0.40877723348201256  0.35779424223095124  1.0000
  H   H2        1.0  0.5036873321980148  0.36845818739483027  0.7592030508953695  1.0000
  H   H3        1.0  0.815004085723222  0.3684581141740233  0.7592030098613414  1.0000
  C   C10       1.0  0.15938683760136207  0.024379113260965868  0.410215162963403  1.0000
  C   C11       1.0  0.2590715235948964  0.021501635885167396  0.4379761355012559  1.0000
  C   C12       1.0  0.3085324041692966  0.9031170635385706  0.45175028837457026  1.0000
  C   C13       1.0  0.2590715228313316  0.7863936665667706  0.43797606771709713  1.0000
  C   C14       1.0  0.15938684789556112  0.7868640558629862  0.4102152454695014  1.0000
  C   C15       1.0  0.1100304227352789  0.9064504373848892  0.3964700497639393  1.0000
  Cl  Cl1       1.0  0.4330623274615344  0.9010259247108293  0.4864302579093427  1.0000
  H   H4        1.0  0.12183736238765387  0.3527661191958666  0.39975728390018905  1.0000
  H   H5        1.0  0.2987185458502485  0.11088245652701788  0.44901722521213605  1.0000
  H   H6        1.0  0.298718507682818  0.6956812627082353  0.4490171216606209  1.0000
  H   H7        1.0  0.03315056779322779  0.9077413077072604  0.37505990885168766  1.0000
  H   H8        1.0  0.12183735765085359  0.45973815512303656  0.399757556018715  1.0000
  C   C16       1.0  0.1594315990116335  0.4015730372206449  0.986969406084436  1.0000
  C   C17       1.0  0.24809990696248127  0.3989934520142129  0.060571904220712236  1.0000
  C   C18       1.0  0.335221640364433  0.40848261674222086  0.9851571284086398  1.0000
  C   C19       1.0  0.33588862334275327  0.42090308191212417  0.8335291402509619  1.0000
  C   C20       1.0  0.24780875184445475  0.4212932057794227  0.7591170401426551  1.0000
  C   C21       1.0  0.15934212996686012  0.4096701197145522  0.8334609408291214  1.0000
  N   N3        1.0  0.4246420564058408  0.43188708058323866  0.7527408816133296  1.0000
  C   C22       1.0  0.5199611071228443  0.43204009384981235  0.8197290927194769  1.0000
  H   H9        1.0  0.007052959236777178  0.33921005156260753  0.27280937832226404  1.0000
  H   H10       1.0  0.40173805091899606  0.4072879818507584  0.046278142081012115  1.0000
  H   H11       1.0  0.9343555499898806  0.30880815387188365  0.7379698220923538  1.0000
  H   H12       1.0  0.4215096506572682  0.44049128056497544  0.63986504802619  1.0000
  H   H13       1.0  0.5262265906182566  0.515322595588684  0.8891976306489728  1.0000
  H   H14       1.0  0.5317371023329287  0.33923758880665833  0.8852830305023724  1.0000
  H   H15       1.0  0.5765373606045359  0.44185483214747834  0.734838534129699  1.0000
  Zn  Zn1       1.0  0.05360340075938464  0.40562310999097306  0.4102172562452182  1.0000
  Zn  Zn2       1.0  0.2651610616723594  0.4056193918546047  0.4102124374430063  1.0000
  C   C23       1.0  0.15935686750448258  0.40296754723922734  0.6734559223171764  1.0000
  C   C24       1.0  0.15940990511545122  0.4082765940165616  0.1469739127816114  1.0000
  C   C25       1.0  0.15938250055863512  0.6426832029862237  0.40447174745528025  1.0000
  C   C26       1.0  0.1593841998632688  0.16855937920025754  0.4159581644865846  1.0000
  O   O1        1.0  0.23968765421994553  0.41051929396485476  0.20067105817785055  1.0000
  O   O2        1.0  0.23964648796570187  0.4007210419323499  0.6197547046646892  1.0000
  O   O3        1.0  0.23966610454206094  0.5942944799206537  0.4025480803807502  1.0000
  O   O4        1.0  0.23966796546471247  0.21694586423137416  0.4178775743963769  1.0000
  O   O5        1.0  0.07909642477278525  0.5942966376168133  0.4025521192859107  1.0000
  O   O6        1.0  0.07907680820021001  0.40072475870042673  0.6197586667208363  1.0000
  O   O7        1.0  0.07911797470185959  0.41052294891589103  0.20067328738107149  1.0000
  O   O8        1.0  0.07909828593125412  0.21694951093019688  0.4178799116590741  1.0000
