data_image0
_chemical_formula_structural       NC5NC3BrH3C6ClH5C6NCOH5Zn2C4O8
_chemical_formula_sum              "N3 C25 Br1 H13 Cl1 O9 Zn2"
_cell_length_a       13.839083392302014
_cell_length_b       10.30297070629231
_cell_length_c       9.27373355559583
_cell_angle_alpha    86.17407986501598
_cell_angle_beta     90.01178760078571
_cell_angle_gamma    90.02428142920579

_space_group_name_H-M_alt    "P 1"
_space_group_IT_number       1

loop_
  _space_group_symop_operation_xyz
  'x, y, z'

loop_
  _atom_site_type_symbol
  _atom_site_label
  _atom_site_symmetry_multiplicity
  _atom_site_fract_x
  _atom_site_fract_y
  _atom_site_fract_z
  _atom_site_occupancy
  N   N1        1.0  0.909662530208235  0.4060243968559247  0.41025538022734387  1.0000
  C   C1        1.0  0.8376614288333267  0.3487487240152316  0.4127186828701206  1.0000
  C   C2        1.0  0.747953927174696  0.2774779824591957  0.41578372535913166  1.0000
  C   C3        1.0  0.6603956492434696  0.34605591221315546  0.4128346831672365  1.0000
  C   C4        1.0  0.5723507231220213  0.2788033924001722  0.4157266690346726  1.0000
  C   C5        1.0  0.4825899686877054  0.34949751315392474  0.41268646383674756  1.0000
  N   N2        1.0  0.41043396974522967  0.4063300421727047  0.4102421801767795  1.0000
  C   C6        1.0  0.5717982492923931  0.1426925991765069  0.4215798006601652  1.0000
  C   C7        1.0  0.6589114841906244  0.07400553091785156  0.424533444757615  1.0000
  C   C8        1.0  0.7471524548782422  0.14061535832841088  0.4216691165783284  1.0000
  Br  Br1       1.0  0.8645579179575721  0.04153700996323861  0.42592984187249106  1.0000
  H   H1        1.0  0.660768679214911  0.45153025548402703  0.40829880214149616  1.0000
  H   H2        1.0  0.5041051275697256  0.08972684492831107  0.4238572033522714  1.0000
  H   H3        1.0  0.6577752513406776  0.9687554630367761  0.4290593038765784  1.0000
  C   C9        1.0  0.1600528574195852  0.02492982126509301  0.4102550100297828  1.0000
  C   C10       1.0  0.25983369334243855  0.022115988014269183  0.4380121157169962  1.0000
  C   C11       1.0  0.30934228092167176  0.9037629941738206  0.4517843499666987  1.0000
  C   C12       1.0  0.25983369256216005  0.7870080186886901  0.438012047935864  1.0000
  C   C13       1.0  0.160052867742545  0.7874147638815765  0.4102550925319497  1.0000
  C   C14       1.0  0.1106488362976148  0.9069696335742309  0.39651181140395964  1.0000
  Cl  Cl1       1.0  0.4339923183604377  0.9017513620119271  0.4864594888881299  1.0000
  H   H4        1.0  0.12246716402078507  0.3532928534929047  0.39979858757726117  1.0000
  H   H5        1.0  0.2995189567321519  0.111522121459104  0.4490516674928886  1.0000
  H   H6        1.0  0.29951891850593504  0.6963209276067465  0.44905156394697493  1.0000
  H   H7        1.0  0.03369482760362197  0.908211419612421  0.3751046527258832  1.0000
  H   H8        1.0  0.12246715934407136  0.4602648894441426  0.39979885968384465  1.0000
  C   C15       1.0  0.1599975809516425  0.40208183709994305  0.9870280216247465  1.0000
  C   C16       1.0  0.0711866617483028  0.39457602594417435  0.06098182446900435  1.0000
  C   C17       1.0  0.9832545004584284  0.3975919440227615  0.9860346571039923  1.0000
  C   C18       1.0  0.98410750214336  0.41233375358179164  0.8346869002614765  1.0000
  C   C19       1.0  0.07146547541978299  0.41790138914596575  0.7595291431063664  1.0000
  C   C20       1.0  0.16010816108446566  0.41026269395215936  0.833482051498224  1.0000
  N   N3        1.0  0.8941571951416452  0.3929840782649574  0.06605149092059803  1.0000
  C   C21       1.0  0.8071012870668797  0.33314656671755194  0.019271360786546007  1.0000
  O   O1        1.0  0.8065931713658084  0.2644405550900504  0.9119205403802546  1.0000
  H   H9        1.0  0.38769954355723657  0.49236927352535176  0.08333547042408784  1.0000
  H   H10       1.0  0.9173735123331794  0.4209370168945645  0.7740740465839497  1.0000
  H   H11       1.0  0.31423122109606805  0.46558594113885454  0.5483717525284821  1.0000
  H   H12       1.0  0.8938111414712558  0.42750380931281556  0.16947049938994674  1.0000
  H   H13       1.0  0.7410568546412099  0.3439942888530164  0.07969394235427774  1.0000
  Zn  Zn1       1.0  0.05417435444008589  0.40610919916006916  0.4102599002104559  1.0000
  Zn  Zn2       1.0  0.2659221391991755  0.40623471300339276  0.41024948788215765  1.0000
  C   C22       1.0  0.16008510468993964  0.4035443190032787  0.673484096251793  1.0000
  C   C23       1.0  0.16001370124709346  0.4088012339956106  0.1470254331840306  1.0000
  C   C24       1.0  0.1600471584262686  0.6432333392796337  0.40451184933928164  1.0000
  C   C25       1.0  0.16005157526602098  0.16911065461345837  0.4159977569381197  1.0000
  O   O2        1.0  0.2403762921484982  0.4110982928888757  0.2007180746731798  1.0000
  O   O3        1.0  0.24043418285621845  0.40134153879270906  0.6197831371679201  1.0000
  O   O4        1.0  0.24040245771095645  0.5948934677888891  0.40258614481611743  1.0000
  O   O5        1.0  0.2404079450244676  0.2175463720927213  0.4179149589662703  1.0000
  O   O6        1.0  0.07968847635566556  0.5947975400292489  0.4025944291223158  1.0000
  O   O7        1.0  0.07972020148654367  0.4012471700973743  0.619791344628513  1.0000
  O   O8        1.0  0.07966231061671136  0.41100386220495955  0.2007245493576857  1.0000
  O   O9        1.0  0.07969396350284554  0.2174519331672884  0.4179215417054616  1.0000
