data_image0
_chemical_formula_structural       NC5NC3F3CH3C9H8C7NH4Zn2C4O8
_chemical_formula_sum              "N3 C29 F3 H15 Zn2 O8"
_cell_length_a       13.85151926108384
_cell_length_b       9.275152443626249
_cell_length_c       9.275157849593905
_cell_angle_alpha    85.91609934181939
_cell_angle_beta     89.74088631582597
_cell_angle_gamma    90.57354708821606

_space_group_name_H-M_alt    "P 1"
_space_group_IT_number       1

loop_
  _space_group_symop_operation_xyz
  'x, y, z'

loop_
  _atom_site_type_symbol
  _atom_site_label
  _atom_site_symmetry_multiplicity
  _atom_site_fract_x
  _atom_site_fract_y
  _atom_site_fract_z
  _atom_site_occupancy
  N   N1        1.0  0.9243916068178817  0.5634246586632539  0.4049822688874256  1.0000
  C   C1        1.0  0.8518160518690131  0.5549438188927772  0.4674590618462966  1.0000
  C   C2        1.0  0.7615263377214866  0.544392494758815  0.5451891298533182  1.0000
  C   C3        1.0  0.6742859558995078  0.552889097841212  0.4696581823876273  1.0000
  C   C4        1.0  0.5864743481887618  0.5443924814161983  0.5451891098469375  1.0000
  C   C5        1.0  0.4967967995794937  0.5549438359531706  0.46745915582623904  1.0000
  N   N2        1.0  0.4247134206377665  0.5634246217793277  0.40498237443527674  1.0000
  C   C6        1.0  0.5858866364728972  0.5264026995295812  0.6964304122070473  1.0000
  C   C7        1.0  0.6731109330331287  0.514727532590388  0.7732340397358679  1.0000
  C   C8        1.0  0.672523391749456  0.5007161572420636  0.9362536686085505  1.0000
  F   F1        1.0  0.7528025226665184  0.4263770042674394  0.9880959814336909  1.0000
  F   F2        1.0  0.5909337075061369  0.42637697461561946  0.9880960808023439  1.0000
  F   F3        1.0  0.6732821801753949  0.6370675035525455  0.9874873707104467  1.0000
  C   C9        1.0  0.7609569626160512  0.5264026044377812  0.6964304321457309  1.0000
  H   H1        1.0  0.6747349746059088  0.5669776712818346  0.35256124959503826  1.0000
  H   H2        1.0  0.5175578159387234  0.5217785132334154  0.754080849856511  1.0000
  H   H3        1.0  0.8288745690362722  0.5217784319158669  0.7540808091083655  1.0000
  C   C10       1.0  0.17170484968525068  0.13980653793070918  0.4064535553612756  1.0000
  C   C11       1.0  0.13724102534183968  0.2213662703822199  0.2840244583020617  1.0000
  C   C12       1.0  0.11175792652196481  0.1547231705740293  0.15930318419181133  1.0000
  C   C13       1.0  0.12034003354389221  0.005335350573023149  0.15454156273473085  1.0000
  C   C14       1.0  0.15291907449766526  0.922077501596739  0.27593597513437285  1.0000
  C   C15       1.0  0.17740930043734895  0.9870318239245066  0.4035235024977865  1.0000
  C   C16       1.0  0.09456680777579796  0.9369413497922702  0.025384839544767553  1.0000
  C   C17       1.0  0.07298778321255653  0.8796439287249508  0.9172363342116369  1.0000
  C   C18       1.0  0.04680590945742847  0.8101116416369071  0.7860170900993938  1.0000
  H   H4        1.0  0.3095737082971451  0.2242311425809176  0.6942593994217163  1.0000
  H   H5        1.0  0.13215687658334233  0.337879388614019  0.2835711539710344  1.0000
  H   H6        1.0  0.0862227146275858  0.22006361978957223  0.06596980137170494  1.0000
  H   H7        1.0  0.1569956908391914  0.8057287353260822  0.271915820931099  1.0000
  H   H8        1.0  0.2671283474950241  0.6936291706029264  0.6003730364887252  1.0000
  H   H9        1.0  0.0644147871650711  0.6935195356435231  0.7994801305107487  1.0000
  H   H10       1.0  0.9682883490414106  0.8225041122412784  0.7662884382315927  1.0000
  H   H11       1.0  0.08785228299798423  0.8615613659141406  0.6927363365998667  1.0000
  C   C19       1.0  0.1758106297016011  0.5593415791521933  0.9818048788364049  1.0000
  C   C20       1.0  0.259337882066484  0.6063688006975951  0.0513382830102449  1.0000
  C   C21       1.0  0.33798921467793563  0.6647393616705278  0.9712582598283181  1.0000
  C   C22       1.0  0.33403186046695765  0.6770106723745524  0.8205568735544766  1.0000
  C   C23       1.0  0.2524815794830515  0.6288153119237374  0.7496859676027747  1.0000
  C   C24       1.0  0.1733035390436189  0.5674967111842675  0.8281722456603133  1.0000
  C   C25       1.0  0.4224762082217683  0.7137755355366766  0.0440923085527667  1.0000
  N   N3        1.0  0.4903821134245284  0.7531873971213912  0.10263861398169438  1.0000
  H   H12       1.0  0.9405877702450546  0.510702893447753  0.08981067156958408  1.0000
  H   H13       1.0  0.39445528029202315  0.722640963003771  0.7575762775585333  1.0000
  H   H14       1.0  0.2523190726702982  0.6363994895417324  0.6325952989445045  1.0000
  H   H15       1.0  0.015900239224146965  0.5286921421531234  0.5508999262664496  1.0000
  Zn  Zn1       1.0  0.06877362438346446  0.5634208769650684  0.4049906189411041  1.0000
  Zn  Zn2       1.0  0.28033127158738186  0.5634167503978202  0.4049858149567471  1.0000
  C   C26       1.0  0.1737365622945224  0.56020841163046  0.6682105400871967  1.0000
  C   C27       1.0  0.17537065571550953  0.5666310372012806  0.14176602890580514  1.0000
  C   C28       1.0  0.17634307304145552  0.8268328498467923  0.3983347767884702  1.0000
  C   C29       1.0  0.17276406088164564  0.3000048665688162  0.41164187503028854  1.0000
  O   O1        1.0  0.25550797862441677  0.5690695864916273  0.19544865081014828  1.0000
  O   O2        1.0  0.25416659240413186  0.5577656381146416  0.6145238609975334  1.0000
  O   O3        1.0  0.25627029607687635  0.7730682583599071  0.39659726755520097  1.0000
  O   O4        1.0  0.2534042031509298  0.353766975526066  0.41337513616723126  1.0000
  O   O5        1.0  0.09570062062570743  0.7730706518397281  0.3966012977246738  1.0000
  O   O6        1.0  0.09359692884568417  0.5577697640135006  0.6145278083353041  1.0000
  O   O7        1.0  0.09493831992402835  0.5690736454264729  0.19545086572311088  1.0000
  O   O8        1.0  0.0928345440570744  0.35377102518411263  0.41337745915949686  1.0000
