data_image0
_chemical_formula_structural       NC9NC3OH6C6BrH3C7F3H5Zn2C4O8
_chemical_formula_sum              "N2 C29 O9 H14 Br1 F3 Zn2"
_cell_length_a       15.78231758774541
_cell_length_b       10.302969083221269
_cell_length_c       9.272291681409872
_cell_angle_alpha    86.06047183095716
_cell_angle_beta     90.4979467289142
_cell_angle_gamma    89.63144763104106

_space_group_name_H-M_alt    "P 1"
_space_group_IT_number       1

loop_
  _space_group_symop_operation_xyz
  'x, y, z'

loop_
  _atom_site_type_symbol
  _atom_site_label
  _atom_site_symmetry_multiplicity
  _atom_site_fract_x
  _atom_site_fract_y
  _atom_site_fract_z
  _atom_site_occupancy
  N   N1        1.0  0.7911704199286849  0.4003918924113196  0.41243241311189816  1.0000
  C   C1        1.0  0.7427519574911872  0.31856378972455923  0.4391637474264425  1.0000
  C   C2        1.0  0.6826386059121031  0.21699522721734435  0.4723442198959049  1.0000
  C   C3        1.0  0.7024779114437638  0.08940805500422977  0.513936085816747  1.0000
  C   C4        1.0  0.6258333248509121  0.02757496479795773  0.5341758930432063  1.0000
  C   C5        1.0  0.563922073559345  0.12200443324737241  0.5034389782291742  1.0000
  C   C6        1.0  0.47085566723932576  0.10454666534636113  0.5092236357104913  1.0000
  C   C7        1.0  0.4169617435205489  0.21159286938559466  0.47419628468495945  1.0000
  C   C8        1.0  0.3287754422698359  0.19727798048433257  0.47894751438459204  1.0000
  C   C9        1.0  0.27418065252688173  0.30743867768570343  0.4428918698684933  1.0000
  N   N2        1.0  0.23029935007890232  0.3959936543821146  0.41390635416042265  1.0000
  C   C10       1.0  0.293802008521265  0.07575758194665672  0.5187804840546621  1.0000
  C   C11       1.0  0.34676471246560026  0.9689327307953344  0.5537402539241718  1.0000
  C   C12       1.0  0.434765900016737  0.9828543556818627  0.5491181361672028  1.0000
  O   O1        1.0  0.6002252638816473  0.2339147808821069  0.4669035473467529  1.0000
  H   H1        1.0  0.7649976759494265  0.046380641444331294  0.5279059057424538  1.0000
  H   H2        1.0  0.6172420724796797  0.9259042117614533  0.5673362610151487  1.0000
  H   H3        1.0  0.44343549184574527  0.3061572457456192  0.4431939297709864  1.0000
  H   H4        1.0  0.22570280296363998  0.06363359649279743  0.5228021723824594  1.0000
  H   H5        1.0  0.31955974991447816  0.8750148492704921  0.5845311308930996  1.0000
  H   H6        1.0  0.47397002165298624  0.8982416223104929  0.5768178942837259  1.0000
  C   C13       1.0  0.01073894656476826  0.016945279070979417  0.4131756641276698  1.0000
  C   C14       1.0  0.09868947285700577  0.013341844542429815  0.4377676058343429  1.0000
  C   C15       1.0  0.14231766697848935  0.8946164949485436  0.449966345592935  1.0000
  C   C16       1.0  0.09868953823431204  0.7782594821362283  0.43776733249668043  1.0000
  C   C17       1.0  0.010738959189743104  0.7794302955497531  0.41317556859081894  1.0000
  C   C18       1.0  0.9671884072934734  0.8993698442120374  0.4009984161183553  1.0000
  Br  Br1       1.0  0.26194552402259097  0.8913695620139193  0.48341601005992274  1.0000
  H   H7        1.0  0.13370091498173664  0.10239087999735919  0.44755735149854764  1.0000
  H   H8        1.0  0.13370101195197448  0.6873099397773119  0.4475567024068517  1.0000
  H   H9        1.0  0.8993575797813557  0.9012108583083577  0.38203235760688803  1.0000
  C   C19       1.0  0.00895545188776169  0.394873101414035  0.9898089259260447  1.0000
  C   C20       1.0  0.06594211546725659  0.3125950606623771  0.07021958466715604  1.0000
  C   C21       1.0  0.12753309918213107  0.2419042938181173  0.0016293013543007247  1.0000
  C   C22       1.0  0.1346026268683842  0.25315217697878967  0.8507606888969814  1.0000
  C   C23       1.0  0.07592762406275017  0.33114604538401315  0.7691741663233178  1.0000
  C   C24       1.0  0.012522441723289422  0.40150252507656004  0.8365422782979213  1.0000
  C   C25       1.0  0.19965455237317342  0.17387373473194967  0.776393711708423  1.0000
  F   F1        1.0  0.2706026177878482  0.1512419831637879  0.8635509927681695  1.0000
  F   F2        1.0  0.2250158599884623  0.2385902246752374  0.648406401132628  1.0000
  F   F3        1.0  0.16474426927642993  0.055917240527224354  0.7463174927685268  1.0000
  H   H10       1.0  0.8896336737915644  0.6584148299651291  0.06949903314570727  1.0000
  H   H11       1.0  0.06398646496146254  0.30486360156378955  0.18725970895456112  1.0000
  H   H12       1.0  0.17021764689390095  0.17914835189705713  0.06698591927494868  1.0000
  H   H13       1.0  0.07834343683256612  0.334584840167069  0.6521944813795812  1.0000
  H   H14       1.0  0.8204988739112488  0.5277960184211339  0.7225554213733574  1.0000
  Zn  Zn1       1.0  0.9178935748616736  0.3991192531807912  0.41286607933527475  1.0000
  Zn  Zn2       1.0  0.1035762163011349  0.39725578978901904  0.4134844733663847  1.0000
  C   C26       1.0  0.0118463234641839  0.3950773808409753  0.6764915691314475  1.0000
  C   C27       1.0  0.009625495943431643  0.40129928098568585  0.14985913182640884  1.0000
  C   C28       1.0  0.010710394291839174  0.6352594736823627  0.40743049906336787  1.0000
  C   C29       1.0  0.010761362079040994  0.16111562957610182  0.4189202785470969  1.0000
  O   O2        1.0  0.08031596358239645  0.4027431269704169  0.20380812031591122  1.0000
  O   O3        1.0  0.08208468252557033  0.39221822659958033  0.6230115123876352  1.0000
  O   O4        1.0  0.08116646175835557  0.5861683253561187  0.4057427914921914  1.0000
  O   O5        1.0  0.08123412053332307  0.20879303729067789  0.4210767329024052  1.0000
  O   O6        1.0  0.9402356072650805  0.5875820063163946  0.4052738195806433  1.0000
  O   O7        1.0  0.9411538277046264  0.3936334667653152  0.622542463604868  1.0000
  O   O8        1.0  0.9393851015157939  0.40415830832300603  0.2033373381853283  1.0000
  O   O9        1.0  0.9403032589186037  0.21020821020372993  0.42060605886216185  1.0000
