data_image0
_chemical_formula_structural       NC5OC5NC4H8C6NCH9C9H8Zn2C4O8
_chemical_formula_sum              "N3 C34 O9 H25 Zn2"
_cell_length_a       19.189071930511275
_cell_length_b       9.273386996610926
_cell_length_c       9.275155815604963
_cell_angle_alpha    85.96204841331945
_cell_angle_beta     90.33561097957745
_cell_angle_gamma    89.38971707573329

_space_group_name_H-M_alt    "P 1"
_space_group_IT_number       1

loop_
  _space_group_symop_operation_xyz
  'x, y, z'

loop_
  _atom_site_type_symbol
  _atom_site_label
  _atom_site_symmetry_multiplicity
  _atom_site_fract_x
  _atom_site_fract_y
  _atom_site_fract_z
  _atom_site_occupancy
  N   N1        1.0  0.6434732533911639  0.564983359435284  0.4071732889389823  1.0000
  C   C1        1.0  0.5886958586556028  0.6160393851716943  0.38679003152665214  1.0000
  C   C2        1.0  0.52055985438336  0.6795445703994636  0.36143632375756674  1.0000
  C   C3        1.0  0.5099828351199936  0.7862441647724643  0.24871090387513695  1.0000
  C   C4        1.0  0.4437960765098878  0.8480136717607218  0.22422228295253152  1.0000
  C   C5        1.0  0.3875236754699736  0.8029556121671864  0.3109552353126992  1.0000
  O   O1        1.0  0.3221379814831042  0.8687376625114117  0.28394649473294  1.0000
  C   C6        1.0  0.25758184674813495  0.8027396506371565  0.31032944551733466  1.0000
  C   C7        1.0  0.2004815082266023  0.8892198316041101  0.34376889150282874  1.0000
  C   C8        1.0  0.1350703643074035  0.8277755778260691  0.36920102537618216  1.0000
  C   C9        1.0  0.1261011426436242  0.6790382055944202  0.35996766409483616  1.0000
  C   C10       1.0  0.05876309013524558  0.6157603909403064  0.38598073724383686  1.0000
  N   N2        1.0  0.0046272731633476985  0.5648872309281299  0.4068945786743425  1.0000
  C   C11       1.0  0.1827236558593353  0.592197240066128  0.3244009359031703  1.0000
  C   C12       1.0  0.24812586129004252  0.6536857243724112  0.2990171549826834  1.0000
  C   C13       1.0  0.3985831085737804  0.6972741949180865  0.42547502650882096  1.0000
  C   C14       1.0  0.464761179672378  0.6355007152081429  0.45003176995149013  1.0000
  H   H1        1.0  0.5528438047535421  0.8217691836929624  0.17996707059738482  1.0000
  H   H2        1.0  0.4360789397388271  0.930620636259872  0.1370029376363473  1.0000
  H   H3        1.0  0.20695405087538538  0.004340443115987922  0.35087778201162045  1.0000
  H   H4        1.0  0.0915551308745414  0.8961772114665734  0.3958385308937484  1.0000
  H   H5        1.0  0.1762385351222489  0.4772317071991287  0.3155440539137617  1.0000
  H   H6        1.0  0.2909195511920518  0.5854832945023765  0.2685908433620594  1.0000
  H   H7        1.0  0.35642690457442666  0.6641913662617092  0.49693738852571  1.0000
  H   H8        1.0  0.4724825547461097  0.5540681920014989  0.5384604876485619  1.0000
  C   C15       1.0  0.826198679837899  0.14128685653471473  0.4077404843942618  1.0000
  C   C16       1.0  0.8380474094909851  0.22363652002710863  0.2774192505640827  1.0000
  C   C17       1.0  0.8433346303864997  0.1580093713235342  0.14709502534465102  1.0000
  C   C18       1.0  0.8368490571994692  0.007681654210262452  0.14375999198851686  1.0000
  C   C19       1.0  0.8262270624364766  0.9243648496445173  0.2736276040657535  1.0000
  C   C20       1.0  0.8219086152387286  0.9885727580952979  0.40633987133600397  1.0000
  N   N3        1.0  0.8415391687940353  0.9369950573170155  0.010745639304462257  1.0000
  C   C21       1.0  0.8527301178692761  0.013676792907360465  0.8700953643537822  1.0000
  H   H9        1.0  0.8411395575079497  0.4054663068279986  0.6443445195089178  1.0000
  H   H10       1.0  0.8415965644163874  0.340266234258392  0.27564833452801646  1.0000
  H   H11       1.0  0.8518318418497636  0.22576573848334422  0.04919156504422138  1.0000
  H   H12       1.0  0.8229310037431059  0.8079450674519493  0.2713565473429429  1.0000
  H   H13       1.0  0.8486108504789867  0.8602282008671917  0.7573475262754933  1.0000
  H   H14       1.0  0.8366212381683616  0.8246549933740613  0.013738039474150863  1.0000
  H   H15       1.0  0.8094543701707806  0.09204611376302775  0.8450878721388361  1.0000
  H   H16       1.0  0.9031707906974519  0.07121712448286477  0.8702890011588549  1.0000
  H   H17       1.0  0.8542331837650179  0.9355046562613561  0.7847723234452922  1.0000
  C   C22       1.0  0.822795277380757  0.5612835798429792  0.983815942417018  1.0000
  C   C23       1.0  0.7679232229572134  0.6315936601490133  0.05155668141185399  1.0000
  C   C24       1.0  0.7176703304000751  0.7114904553931418  0.970178327949438  1.0000
  C   C25       1.0  0.7213565834836985  0.7227501900517407  0.8195750264722915  1.0000
  C   C26       1.0  0.7748302040687703  0.6516653685522011  0.750128286320809  1.0000
  C   C27       1.0  0.8253120179434544  0.5685760081802873  0.8302643409113726  1.0000
  C   C28       1.0  0.6696779657705142  0.8060178208721334  0.7358795700754692  1.0000
  C   C29       1.0  0.6264064148469206  0.8757430897917206  0.6657694036629409  1.0000
  C   C30       1.0  0.573904165023198  0.9603429143051763  0.5806910940686558  1.0000
  H   H18       1.0  0.9851366104293661  0.4448444913532052  0.09684137007999638  1.0000
  H   H19       1.0  0.7648126171035655  0.6275954132340162  0.16835724666694007  1.0000
  H   H20       1.0  0.6762718392806569  0.7657252560839405  0.024933458783172425  1.0000
  H   H21       1.0  0.7760834479742104  0.6584488643716391  0.6329697823696954  1.0000
  H   H22       1.0  0.9336622826469158  0.48500176147086815  0.5567367681206772  1.0000
  H   H23       1.0  0.5880442828365706  0.9644841766633734  0.46467432499674244  1.0000
  H   H24       1.0  0.5222621916228531  0.9089837848862028  0.5958423556348125  1.0000
  H   H25       1.0  0.5715764833367976  0.07174017726014492  0.6170130324982694  1.0000
  Zn  Zn1       1.0  0.7476945551352153  0.5649518418460497  0.4071011820547567  1.0000
  Zn  Zn2       1.0  0.9004060833672733  0.564907092387197  0.4069784887372291  1.0000
  C   C31       1.0  0.8248638557610768  0.5614503724987249  0.6702770060729997  1.0000
  C   C32       1.0  0.8232384415505398  0.5684103827459375  0.14380280182600247  1.0000
  C   C33       1.0  0.8226988772343131  0.828368222656306  0.40086144885200725  1.0000
  C   C34       1.0  0.8254033769720959  0.30149079998366735  0.41321843879171816  1.0000
  O   O2        1.0  0.8813404324631343  0.5707789268570626  0.197449302271419  1.0000
  O   O3        1.0  0.8826663855493875  0.5590467726722631  0.616536971161928  1.0000
  O   O4        1.0  0.8809173612276472  0.774586325451253  0.3989820006941547  1.0000
  O   O5        1.0  0.8830894043012198  0.3552393834825136  0.4150041647024445  1.0000
  O   O6        1.0  0.7650111820882883  0.774619550767509  0.39907550612382736  1.0000
  O   O7        1.0  0.7667601974022563  0.5590817306099847  0.6166303968811637  1.0000
  O   O8        1.0  0.7654342394648497  0.5708138195931858  0.19754099530903346  1.0000
  O   O9        1.0  0.7671832116736097  0.3552742668309723  0.4150959658110933  1.0000
