data_image0
_chemical_formula_structural       NC9NC3OH6C6NCH9C6NH7Zn2C4O8
_chemical_formula_sum              "N4 C29 O9 H22 Zn2"
_cell_length_a       15.78231758774541
_cell_length_b       9.273386996610926
_cell_length_c       9.274774538082516
_cell_angle_alpha    84.97283399596293
_cell_angle_beta     90.43038941912484
_cell_angle_gamma    89.03191128213776

_space_group_name_H-M_alt    "P 1"
_space_group_IT_number       1

loop_
  _space_group_symop_operation_xyz
  'x, y, z'

loop_
  _atom_site_type_symbol
  _atom_site_label
  _atom_site_symmetry_multiplicity
  _atom_site_fract_x
  _atom_site_fract_y
  _atom_site_fract_z
  _atom_site_occupancy
  N   N1        1.0  0.782404325929283  0.5840031988562748  0.408066309803281  1.0000
  C   C1        1.0  0.7345319848622406  0.49259905037290097  0.43497990343786713  1.0000
  C   C2        1.0  0.6750965024301905  0.37914428091274854  0.46838660444911473  1.0000
  C   C3        1.0  0.6957873708235025  0.23662757945240798  0.5102625538930605  1.0000
  C   C4        1.0  0.6195554380102085  0.16755768228317236  0.5306401292245606  1.0000
  C   C5        1.0  0.5570139067609811  0.273035950979597  0.49969300998529254  1.0000
  C   C6        1.0  0.4640639718195264  0.25353373914905886  0.5055166419688573  1.0000
  C   C7        1.0  0.4094556506305023  0.3731081817617006  0.4702507984080228  1.0000
  C   C8        1.0  0.32136484861132486  0.35711676600749187  0.4750339949201556  1.0000
  C   C9        1.0  0.2660348808229869  0.4801703692184789  0.4387329088373643  1.0000
  N   N2        1.0  0.2215625908876941  0.5790896026421632  0.40955008821970695  1.0000
  C   C10       1.0  0.2872023735661889  0.2213729181060635  0.5151377813566309  1.0000
  C   C11       1.0  0.3408779952419644  0.10204564993817766  0.550335555951198  1.0000
  C   C12       1.0  0.4287863078791029  0.11759776821430103  0.5456823480240212  1.0000
  O   O1        1.0  0.5925701947407257  0.39804235755383854  0.46290834173759565  1.0000
  H   H1        1.0  0.7585943448775235  0.18856632930171283  0.5243281155127286  1.0000
  H   H2        1.0  0.6116427642642702  0.053989697066967546  0.5640268943330837  1.0000
  H   H3        1.0  0.4352983322611557  0.4787410106868765  0.4390376943230987  1.0000
  H   H4        1.0  0.2191840522307543  0.20782904061255578  0.5191865413478767  1.0000
  H   H5        1.0  0.3142997848193644  0.9971349777348074  0.5813357418123655  1.0000
  H   H6        1.0  0.46855510537267125  0.023082088203868718  0.573570632615433  1.0000
  C   C13       1.0  0.004595900293855145  0.15785701886952205  0.4095262325092186  1.0000
  C   C14       1.0  0.018999688076064336  0.2423076050542019  0.27907891522826594  1.0000
  C   C15       1.0  0.02542477311569379  0.17886904356794964  0.1485965740331392  1.0000
  C   C16       1.0  0.017538302099434414  0.02868573836653532  0.14522517636255805  1.0000
  C   C17       1.0  0.004626192467245272  0.9432594946913566  0.2752242196907657  1.0000
  C   C18       1.0  0.9993791978147574  0.005224483381358631  0.40810270195392234  1.0000
  N   N3        1.0  0.02323722594030662  0.9602423352624596  0.012045996541388828  1.0000
  C   C19       1.0  0.03684083669737115  0.03921283164882472  0.8712518501695907  1.0000
  H   H7        1.0  0.022771244219594415  0.4177354135585558  0.6465371125501732  1.0000
  H   H8        1.0  0.023315354969122282  0.358920628154034  0.2773228242103629  1.0000
  H   H9        1.0  0.03575418199191335  0.24820911892128986  0.050596421320470604  1.0000
  H   H10       1.0  0.0006181598386163522  0.826923092205209  0.2729338690118688  1.0000
  H   H11       1.0  0.031859788034628266  0.87043862733196  0.759736067553034  1.0000
  H   H12       1.0  0.017257185429055518  0.8479160644909511  0.015018614227344514  1.0000
  H   H13       1.0  0.9842173472663244  0.11859350039664339  0.8459978260039809  1.0000
  H   H14       1.0  0.09817599370744261  0.09607629647710426  0.8716919733130072  1.0000
  H   H15       1.0  0.03866585854894811  0.9624997096876011  0.7858157312548983  1.0000
  C   C20       1.0  0.00044406929025653187  0.5852479652402999  0.9849868008252738  1.0000
  C   C21       1.0  0.059964509258297854  0.6697188497823512  0.05178313924797239  1.0000
  C   C22       1.0  0.1233597765794947  0.7422622110430661  0.9711108623014509  1.0000
  C   C23       1.0  0.12774965631523538  0.7306611523127802  0.8221674469106738  1.0000
  C   C24       1.0  0.068481518280195  0.6493655822770257  0.7536641248885718  1.0000
  C   C25       1.0  0.003531038886691152  0.5778335163383088  0.8326421023383288  1.0000
  N   N4        1.0  0.18385426493119716  0.8265214854344981  0.04091606984412887  1.0000
  H   H16       1.0  0.8755159600389583  0.30462199058256734  0.11095299227184327  1.0000
  H   H17       1.0  0.058397034457694494  0.6765787497038394  0.1677866192033819  1.0000
  H   H18       1.0  0.1767005901342551  0.7858538525933161  0.75870957253137  1.0000
  H   H19       1.0  0.07228491438245555  0.6453099703231031  0.6375105844058768  1.0000
  H   H20       1.0  0.9167580231366941  0.3932434909108793  0.5665750489462805  1.0000
  H   H21       1.0  0.1813378271952666  0.8355968011436508  0.1522624787407145  1.0000
  H   H22       1.0  0.2315890884572599  0.8805932743724827  0.9817446538442222  1.0000
  Zn  Zn1       1.0  0.9091359652644293  0.5825813143581171  0.40850283040993784  1.0000
  Zn  Zn2       1.0  0.0948310385218078  0.5804996082515101  0.4091253856559415  1.0000
  C   C26       1.0  0.0029810352232977314  0.5734872583048942  0.6724267515369512  1.0000
  C   C27       1.0  0.0009879856558963089  0.5895954607901035  0.1452016099264879  1.0000
  C   C28       1.0  0.0003399729093835916  0.8451043650170748  0.4026204053323793  1.0000
  C   C29       1.0  0.003628995556992141  0.3179766206664132  0.41500803577791845  1.0000
  O   O2        1.0  0.07164088025100712  0.5902582289262167  0.19920743048716333  1.0000
  O   O3        1.0  0.07326640972680273  0.5712434385933869  0.618893022364372  1.0000
  O   O4        1.0  0.07113277399930878  0.790577684853393  0.4010224831743109  1.0000
  O   O5        1.0  0.0737744521557126  0.3709239946442693  0.41707786123182095  1.0000
  O   O6        1.0  0.9301924882618722  0.7921569286773794  0.40055035461401634  1.0000
  O   O7        1.0  0.9323261130335323  0.5728244165409044  0.6184208139371776  1.0000
  O   O8        1.0  0.9307005776042736  0.5918391717731395  0.19873348690936687  1.0000
  O   O9        1.0  0.9328341499631152  0.37250492622515474  0.41660402587938683  1.0000
