data_image0
_chemical_formula_structural       NC5NC3F3CH3C6NH7C6SCH8Zn2C4O8
_chemical_formula_sum              "N3 C26 F3 H18 S1 Zn2 O8"
_cell_length_a       13.85151926108384
_cell_length_b       9.274771166103582
_cell_length_c       10.302812801239591
_cell_angle_alpha    85.45577702643503
_cell_angle_beta     89.99987069690108
_cell_angle_gamma    90.59705350001695

_space_group_name_H-M_alt    "P 1"
_space_group_IT_number       1

loop_
  _space_group_symop_operation_xyz
  'x, y, z'

loop_
  _atom_site_type_symbol
  _atom_site_label
  _atom_site_symmetry_multiplicity
  _atom_site_fract_x
  _atom_site_fract_y
  _atom_site_fract_z
  _atom_site_occupancy
  N   N1        1.0  0.9200992542842461  0.5786602744595797  0.5653423622111649  1.0000
  C   C1        1.0  0.847706277274089  0.5695782048646155  0.6216147973764143  1.0000
  C   C2        1.0  0.7576437162155762  0.558278864816018  0.691625756807277  1.0000
  C   C3        1.0  0.6701821269711127  0.5675024692968127  0.6235929695242131  1.0000
  C   C4        1.0  0.5825917266199895  0.5582788516672829  0.6916257387642427  1.0000
  C   C5        1.0  0.49268702526737496  0.5695782210181008  0.6216148820670138  1.0000
  N   N2        1.0  0.42042106840640053  0.5786602365618433  0.5653424572445219  1.0000
  C   C6        1.0  0.5824466878175906  0.5388334225279352  0.8278514865480269  1.0000
  C   C7        1.0  0.6698950879268996  0.526419260472073  0.8970261847595182  1.0000
  C   C8        1.0  0.669786166931575  0.5108384215318422  0.043868727252245984  1.0000
  F   F1        1.0  0.7501983693099895  0.4360060552775961  0.09046460461446802  1.0000
  F   F2        1.0  0.58832955443557  0.4360060246708903  0.0904646940915862  1.0000
  F   F3        1.0  0.6707339181405033  0.6466846423266319  0.09022357929291236  1.0000
  C   C9        1.0  0.7575170139937141  0.5388333272520547  0.8278515043719347  1.0000
  H   H1        1.0  0.6702884548522796  0.5827180482704162  0.518121900091836  1.0000
  H   H2        1.0  0.5142872176639716  0.5336541815211082  0.8797815243445524  1.0000
  H   H3        1.0  0.8256039706186596  0.5336541006030167  0.8797814875163081  1.0000
  C   C10       1.0  0.1673008538324774  0.15506371910470795  0.5660500352698619  1.0000
  C   C11       1.0  0.1450855583284092  0.238372471429533  0.4499501400159954  1.0000
  C   C12       1.0  0.13188395543627343  0.17332308651715841  0.333113642157746  1.0000
  C   C13       1.0  0.14094826043216613  0.023587476280894297  0.3315307818984745  1.0000
  C   C14       1.0  0.16137834429631487  0.9389592958960921  0.44603580389315156  1.0000
  C   C15       1.0  0.17322863207712214  0.0022457578206682626  0.5646460125019763  1.0000
  N   N3        1.0  0.11026180394860075  0.2597313368211407  0.2157377418642572  1.0000
  H   H4        1.0  0.2759498236534386  0.23472403195898478  0.8501822026304603  1.0000
  H   H5        1.0  0.1402178282024893  0.35496517956664686  0.44945143370214424  1.0000
  H   H6        1.0  0.13124788444786262  0.9721002541954598  0.24163688450566573  1.0000
  H   H7        1.0  0.16563292311105138  0.8227952805429222  0.44231759336692206  1.0000
  H   H8        1.0  0.24249518148906002  0.7051794435541001  0.7579564878550815  1.0000
  H   H9        1.0  0.1036102294358332  0.37180523812156374  0.2156955733361654  1.0000
  H   H10       1.0  0.1006523129410195  0.21226132245306428  0.12797893147823736  1.0000
  C   C16       1.0  0.1702647646596569  0.5786547279824017  0.18409954986231214  1.0000
  C   C17       1.0  0.13871335064298165  0.7225052889822683  0.17266386024183422  1.0000
  C   C18       1.0  0.1227639841098367  0.7938680293853683  0.049998589478341904  1.0000
  C   C19       1.0  0.13871326254959282  0.7225051375600299  0.9375126908035337  1.0000
  C   C20       1.0  0.17026470197185223  0.5786547182613964  0.9465964535079555  1.0000
  C   C21       1.0  0.1858563977894918  0.5074198021657532  0.07042866422202552  1.0000
  S   S1        1.0  0.08265140817057559  0.977765196224898  0.03688248255224402  1.0000
  C   C22       1.0  0.9553105266483823  0.9273668308603479  0.040478132964895996  1.0000
  H   H11       1.0  0.18211896417620826  0.5244259319509483  0.5157235030847644  1.0000
  H   H12       1.0  0.12617981360829567  0.7796431422615946  0.25868821436406403  1.0000
  H   H13       1.0  0.1261796188705342  0.7796429344704489  0.843337901726326  1.0000
  H   H14       1.0  0.2101758285944142  0.3964519256597021  0.07834311544795235  1.0000
  H   H15       1.0  0.18211716136720374  0.5244251830551051  0.6227079188117024  1.0000
  H   H16       1.0  0.9377424815084076  0.8631958821473793  0.9569381609783958  1.0000
  H   H17       1.0  0.9377429051871309  0.8631973399524859  0.13317285059587758  1.0000
  H   H18       1.0  0.9113259605178382  0.026931351966711144  0.03337661372954682  1.0000
  Zn  Zn1       1.0  0.06448129552630566  0.5786564126301685  0.5653498791872894  1.0000
  Zn  Zn2       1.0  0.27603892738285896  0.5786523326960429  0.5653455453011487  1.0000
  C   C23       1.0  0.1702223537410895  0.5729081725223801  0.8024777489368422  1.0000
  C   C24       1.0  0.17030019210584096  0.5844023928174036  0.32821779991404476  1.0000
  C   C25       1.0  0.1721031752133364  0.8421102884293513  0.5597378432194163  1.0000
  C   C26       1.0  0.16841928631740544  0.3151985438424634  0.570957777721959  1.0000
  O   O1        1.0  0.2505970565951361  0.5863235202389545  0.376583566910327  1.0000
  O   O2        1.0  0.25049282910635906  0.570982860321534  0.7541083206968024  1.0000
  O   O3        1.0  0.2520105339508756  0.7883669734626761  0.5580941269412756  1.0000
  O   O4        1.0  0.24907927963254017  0.36893941741810177  0.5725976633063187  1.0000
  O   O5        1.0  0.09144087108239841  0.788369327911072  0.5580977611767668  1.0000
  O   O6        1.0  0.08992317835984487  0.570986947840861  0.7541118828364539  1.0000
  O   O7        1.0  0.0900274055612287  0.5863275574913172  0.3765855682257637  1.0000
  O   O8        1.0  0.08850962852248667  0.3689434443531372  0.5725997619759386  1.0000
