data_image0
_chemical_formula_structural       NC9NC3OH6C7OC6H10C7OC3FC3H8Zn2C4O8
_chemical_formula_sum              "N2 C42 O11 H24 F1 Zn2"
_cell_length_a       15.78231758774541
_cell_length_b       10.299379429549807
_cell_length_c       10.299381723001552
_cell_angle_alpha    85.55361563187328
_cell_angle_beta     90.06753164669175
_cell_angle_gamma    89.62936124648849

_space_group_name_H-M_alt    "P 1"
_space_group_IT_number       1

loop_
  _space_group_symop_operation_xyz
  'x, y, z'

loop_
  _atom_site_type_symbol
  _atom_site_label
  _atom_site_symmetry_multiplicity
  _atom_site_fract_x
  _atom_site_fract_y
  _atom_site_fract_z
  _atom_site_occupancy
  N   N1        1.0  0.7980916095892875  0.41297486420410845  0.569373936144185  1.0000
  C   C1        1.0  0.7495580182732547  0.3309128213029456  0.5934853809396907  1.0000
  C   C2        1.0  0.6893017620672686  0.22905387917372  0.6234138951095746  1.0000
  C   C3        1.0  0.7089619425770649  0.1011026123450889  0.6609295225549787  1.0000
  C   C4        1.0  0.6322301823985559  0.03909243958243458  0.6791856149162869  1.0000
  C   C5        1.0  0.5704513033525707  0.133791031953842  0.6514610370033777  1.0000
  C   C6        1.0  0.4773599771118233  0.11628273407211888  0.6566786534434877  1.0000
  C   C7        1.0  0.4236169165765852  0.22363541411315585  0.6250843384149031  1.0000
  C   C8        1.0  0.3354101467614306  0.2092790315141331  0.6293698194651991  1.0000
  C   C9        1.0  0.2809706497520617  0.3197551912672596  0.5968480050681084  1.0000
  N   N2        1.0  0.2372141888885035  0.4085637700019163  0.570703374643373  1.0000
  C   C10       1.0  0.3002651468438578  0.08741019001277883  0.6652986711293863  1.0000
  C   C11       1.0  0.3530772783188071  0.9802794597840021  0.6968320228711973  1.0000
  C   C12       1.0  0.4410983783160951  0.9942414491848803  0.6926629989717172  1.0000
  O   O1        1.0  0.6069118459958954  0.2460211474583936  0.6185063498372599  1.0000
  H   H1        1.0  0.771421547012645  0.05795284140014779  0.6735302885836241  1.0000
  H   H2        1.0  0.6234961159504232  0.9371314208339855  0.7090960587436657  1.0000
  H   H3        1.0  0.4502241967664629  0.31847098065980317  0.5971205995439415  1.0000
  H   H4        1.0  0.23214861579924512  0.07525107943478626  0.668926128309043  1.0000
  H   H5        1.0  0.3257396947359251  0.8860922385008316  0.724605010703832  1.0000
  H   H6        1.0  0.480183195828428  0.9093863685421968  0.7176478840901159  1.0000
  C   C13       1.0  0.017666159082720505  0.029377328078915136  0.5701927522282468  1.0000
  C   C14       1.0  0.06900825009828826  0.019002905060814694  0.6820927773985693  1.0000
  C   C15       1.0  0.09410932384108618  0.8965392946764357  0.7393806728912551  1.0000
  C   C16       1.0  0.06890516703690741  0.7837817940757993  0.6818161854765159  1.0000
  C   C17       1.0  0.01764772762398946  0.7921512612704679  0.5698957916248812  1.0000
  C   C18       1.0  0.9921414739518306  0.9154221391806274  0.514929841846247  1.0000
  C   C19       1.0  0.1490587662576044  0.885493898752095  0.8567434317599973  1.0000
  O   O2        1.0  0.20281094925770574  0.7941708229178714  0.869262246760124  1.0000
  C   C20       1.0  0.143025077104866  0.9779478427737266  0.9599089683484847  1.0000
  C   C21       1.0  0.21548816424927542  0.006703862133780271  0.03169033212579875  1.0000
  C   C22       1.0  0.21022164631304974  0.09254273851338746  0.1301657430856431  1.0000
  C   C23       1.0  0.13259947806912897  0.14962378829159984  0.1586887067715489  1.0000
  C   C24       1.0  0.06000606746459944  0.12056081107923003  0.0891510264719645  1.0000
  C   C25       1.0  0.06493234089704436  0.03480498189498916  0.990586919324133  1.0000
  H   H7        1.0  0.9218499698213055  0.25635378095579386  0.35787324149938593  1.0000
  H   H8        1.0  0.09031418836259769  0.10638806188066828  0.7239938873128263  1.0000
  H   H9        1.0  0.0887323728668463  0.6892928516718495  0.7253130035030808  1.0000
  H   H10       1.0  0.9525609899641494  0.9226159404882915  0.4286627517387405  1.0000
  H   H11       1.0  0.998546772411531  0.46795282365602847  0.526270786786716  1.0000
  H   H12       1.0  0.2762772371498865  0.963642437639616  0.010827234601756386  1.0000
  H   H13       1.0  0.2663783660163819  0.11476329196242153  0.18443130453050482  1.0000
  H   H14       1.0  0.1286384172399594  0.2159544441904602  0.23501699321999003  1.0000
  H   H15       1.0  0.999761842102652  0.16405604298967202  0.11201558010987411  1.0000
  H   H16       1.0  0.007604866202933101  0.01191214362335357  0.9394775292186809  1.0000
  C   C26       1.0  0.017728273715546635  0.4106624275053797  0.1886768645171608  1.0000
  C   C27       1.0  0.044545336756966154  0.2799310081795625  0.19767007419581084  1.0000
  C   C28       1.0  0.05899163125074989  0.21444070639461524  0.08499983841846181  1.0000
  C   C29       1.0  0.044464288915785355  0.2802249734453677  0.9624036647050263  1.0000
  C   C30       1.0  0.01758557795893601  0.4108661183352344  0.9514117093455395  1.0000
  C   C31       1.0  0.0045866761230515295  0.4754306965977737  0.06513937102887214  1.0000
  C   C32       1.0  0.0864510152371567  0.07598840766991666  0.09438204772512071  1.0000
  O   O3        1.0  0.06035540224466526  0.0030021884876121363  0.010150297746011729  1.0000
  C   C33       1.0  0.14352034781512157  0.020338832760659294  0.19922147500724055  1.0000
  C   C34       1.0  0.1366977175456514  0.8884388597462034  0.24452533472375176  1.0000
  C   C35       1.0  0.19088053499721014  0.8346843657121832  0.34226655139188755  1.0000
  F   F1        1.0  0.1833803886845679  0.7076851569974852  0.385962105947976  1.0000
  C   C36       1.0  0.2527622901704478  0.9116908372071832  0.39489160432159875  1.0000
  C   C37       1.0  0.26080515921275427  0.04237303475274779  0.3495268496255271  1.0000
  C   C38       1.0  0.20679035420657832  0.09653763529699179  0.2518569571844962  1.0000
  H   H17       1.0  0.9658765283689168  0.6567677189513821  0.3790696827503915  1.0000
  H   H18       1.0  0.05332499304979299  0.22844936228429114  0.29252224813440497  1.0000
  H   H19       1.0  0.05496765915881284  0.22956704746764856  0.8754293334322912  1.0000
  H   H20       1.0  0.9839123211474196  0.5762145821365219  0.057402220051224306  1.0000
  H   H21       1.0  0.08896678087106033  0.8273984915908426  0.2050318306974186  1.0000
  H   H22       1.0  0.29473297695486633  0.8700584131756642  0.47045139282268905  1.0000
  H   H23       1.0  0.309201002314863  0.10165888480007747  0.38966197091996024  1.0000
  H   H24       1.0  0.2151185371595835  0.19741874670137866  0.21658214798193012  1.0000
  Zn  Zn1       1.0  0.9248128954423808  0.4116984505173575  0.5697650781651569  1.0000
  Zn  Zn2       1.0  0.11049287281326187  0.40982958641350575  0.5703228530263604  1.0000
  C   C39       1.0  0.017610807864677284  0.40565367209886083  0.8072404825545225  1.0000
  C   C40       1.0  0.0176969879470934  0.4158759831766848  0.3328475815558661  1.0000
  C   C41       1.0  0.017647813607750033  0.64796940528741  0.5647767660721125  1.0000
  C   C42       1.0  0.017659918869188145  0.17355869024750303  0.5753113676937743  1.0000
  O   O4        1.0  0.08815107202727157  0.4169108098149589  0.3814442660686146  1.0000
  O   O5        1.0  0.08808353036038641  0.40319944096679383  0.7590667627922689  1.0000
  O   O6        1.0  0.0881124628170437  0.598872469938615  0.5632755928824795  1.0000
  O   O7        1.0  0.0881220762286043  0.22123779074562888  0.5772353384101714  1.0000
  O   O8        1.0  0.9471836286635757  0.6002902468243985  0.5628525925841731  1.0000
  O   O9        1.0  0.9471546961782887  0.40461877823237363  0.7586436926412911  1.0000
  O   O10       1.0  0.9472222381946741  0.41833010140422583  0.38101963454089316  1.0000
  O   O11       1.0  0.9471932423745546  0.22265707307156848  0.5768108042535096  1.0000
