data_image0
_chemical_formula_structural       NC9NC3OH6C7ONH7C8H6Zn2C4O8
_chemical_formula_sum              "N3 C31 O10 H19 Zn2"
_cell_length_a       15.78231758774541
_cell_length_b       10.297852080636378
_cell_length_c       9.275144076552241
_cell_angle_alpha    85.95896827245511
_cell_angle_beta     90.54614249944106
_cell_angle_gamma    89.61065309411966

_space_group_name_H-M_alt    "P 1"
_space_group_IT_number       1

loop_
  _space_group_symop_operation_xyz
  'x, y, z'

loop_
  _atom_site_type_symbol
  _atom_site_label
  _atom_site_symmetry_multiplicity
  _atom_site_fract_x
  _atom_site_fract_y
  _atom_site_fract_z
  _atom_site_occupancy
  N   N1        1.0  0.7900415701165173  0.40363544609927465  0.4127020869872451  1.0000
  C   C1        1.0  0.7416559185837944  0.3217236196517528  0.4394292825168857  1.0000
  C   C2        1.0  0.6815832935074854  0.22005113498485532  0.4726046176798033  1.0000
  C   C3        1.0  0.7014737139978001  0.09233356069525067  0.5141900458315884  1.0000
  C   C4        1.0  0.6248539411089644  0.03043714025607591  0.534426718496636  1.0000
  C   C5        1.0  0.5629048818185733  0.12496304791968751  0.5036945603027706  1.0000
  C   C6        1.0  0.46984551657239154  0.1074872870538921  0.5094783204275524  1.0000
  C   C7        1.0  0.41590864111500325  0.2146431098592079  0.47445639387268446  1.0000
  C   C8        1.0  0.32772811735196994  0.20031345445240462  0.4792068863623464  1.0000
  C   C9        1.0  0.2730891215885037  0.3105869744670076  0.4431568257559657  1.0000
  N   N2        1.0  0.22917228248848473  0.3992326484337212  0.4141757990424584  1.0000
  C   C10       1.0  0.29280347788552336  0.07866850388560609  0.5190336858812068  1.0000
  C   C11       1.0  0.3458090471862114  0.9717342528707824  0.5539880416436622  1.0000
  C   C12       1.0  0.4338046152603097  0.9856702408600809  0.5493666410928388  1.0000
  O   O1        1.0  0.5991632106341184  0.23698786148832124  0.4671647856760288  1.0000
  H   H1        1.0  0.7640106880672348  0.04926226110363442  0.5281577046461159  1.0000
  H   H2        1.0  0.6163034293642405  0.9286624462041476  0.567581953404684  1.0000
  H   H3        1.0  0.44234441621513093  0.3093044181606726  0.4434588413529606  1.0000
  H   H4        1.0  0.2247091643811764  0.06653201573517721  0.5230547502451989  1.0000
  H   H5        1.0  0.31864179849068297  0.8777201013299378  0.5847741489672345  1.0000
  H   H6        1.0  0.47304269385822434  0.900970840454067  0.5770621092433503  1.0000
  C   C13       1.0  0.00970133717026811  0.019996018238136008  0.41344785332228273  1.0000
  C   C14       1.0  0.9973950410468239  0.028711702235416855  0.2628269002256032  1.0000
  C   C15       1.0  0.9904071702226283  0.9160464284351485  0.186570197498916  1.0000
  C   C16       1.0  0.9971805927539966  0.7934613309911929  0.2627764544004547  1.0000
  C   C17       1.0  0.009520629268602967  0.7828620968428626  0.413442454311056  1.0000
  C   C18       1.0  0.015499905699532184  0.8966456125566985  0.4878271781574845  1.0000
  C   C19       1.0  0.9776193304962276  0.9278503616631709  0.027465665905779042  1.0000
  O   O2        1.0  0.9999188117271971  0.03028109957136982  0.9557622126679072  1.0000
  N   N3        1.0  0.9394123539335804  0.8259569208076959  0.9529178110907814  1.0000
  H   H7        1.0  0.03326674602984503  0.21079327635564837  0.6980460921702156  1.0000
  H   H8        1.0  0.9924791996665919  0.12352324619979817  0.20470771611743463  1.0000
  H   H9        1.0  0.9945112600629623  0.7059253572260392  0.2049564130595143  1.0000
  H   H10       1.0  0.024982407380804265  0.8891747986398398  0.6039126111161066  1.0000
  H   H11       1.0  0.034199461200025365  0.5555582087808055  0.6979130837286284  1.0000
  H   H12       1.0  0.9346124314093798  0.8343695832725581  0.8402808847873557  1.0000
  H   H13       1.0  0.910736401329024  0.7464559879127932  0.008207251454434244  1.0000
  C   C20       1.0  0.007615744140366579  0.3987910567020265  0.9901529998759622  1.0000
  C   C21       1.0  0.9523486377519231  0.4840562141090295  0.05594072681164119  1.0000
  C   C22       1.0  0.9038791454321162  0.5756889407789351  0.972842335589577  1.0000
  C   C23       1.0  0.9098000121887491  0.5839300462088715  0.8224316748833465  1.0000
  C   C24       1.0  0.9633080276044083  0.4985872709369207  0.7548822124211552  1.0000
  C   C25       1.0  0.011606254793523611  0.4040670921612506  0.8367374041668011  1.0000
  C   C26       1.0  0.8600989825753115  0.6791457586386672  0.7369592140473595  1.0000
  C   C27       1.0  0.8184893980453514  0.7588636690258086  0.6653825798362919  1.0000
  H   H14       1.0  0.18380773709401854  0.22651288358967236  0.1093493826391958  1.0000
  H   H15       1.0  0.9481107201263655  0.4819151784812048  0.17259664182770337  1.0000
  H   H16       1.0  0.8623492228466224  0.6410516558003239  0.02614095024222474  1.0000
  H   H17       1.0  0.9657360071795223  0.503960338883077  0.6378057160172053  1.0000
  H   H18       1.0  0.1284004672700334  0.28396663456511795  0.567315937685008  1.0000
  H   H19       1.0  0.7819648203906878  0.8288389902503726  0.6025516777056503  1.0000
  Zn  Zn1       1.0  0.9167652443427171  0.40236147602688654  0.4131356856878823  1.0000
  Zn  Zn2       1.0  0.1024486378231797  0.4004960905497903  0.41375398376996  1.0000
  C   C28       1.0  0.010851296228810304  0.39789518294997084  0.6767148176056739  1.0000
  C   C29       1.0  0.008364613872693164  0.4049640030550177  0.15017500007110662  1.0000
  C   C30       1.0  0.009523375652266353  0.6386284145535903  0.4076994322626073  1.0000
  C   C31       1.0  0.009692471820324839  0.1642292119815043  0.41919046206405075  1.0000
  O   O3        1.0  0.07908182286667831  0.40632212940639145  0.20411448609520355  1.0000
  O   O4        1.0  0.08106348474141462  0.3951202896975403  0.6232441905839774  1.0000
  O   O5        1.0  0.07999022923319243  0.5895154375884251  0.4060123604183832  1.0000
  O   O6        1.0  0.08015501450208884  0.21192699077038335  0.4213462079708421  1.0000
  O   O7        1.0  0.9390588042991436  0.5909305764442245  0.405543461268423  1.0000
  O   O8        1.0  0.9401320590716128  0.3965369886611652  0.6227752145655632  1.0000
  O   O9        1.0  0.9381503890949788  0.4077387723047816  0.2036437770343682  1.0000
  O   O10       1.0  0.9392235812385361  0.21334362505182858  0.4208756069813855  1.0000
