data_image0
_chemical_formula_structural       NC5NC3BrH3C6NCH9C7NH4Zn2C4O8
_chemical_formula_sum              "N4 C26 Br1 H16 Zn2 O8"
_cell_length_a       13.839083392302014
_cell_length_b       9.273386996610926
_cell_length_c       9.275157849593905
_cell_angle_alpha    86.01375275156522
_cell_angle_beta     89.74163777479679
_cell_angle_gamma    89.42455387291925

_space_group_name_H-M_alt    "P 1"
_space_group_IT_number       1

loop_
  _space_group_symop_operation_xyz
  'x, y, z'

loop_
  _atom_site_type_symbol
  _atom_site_label
  _atom_site_symmetry_multiplicity
  _atom_site_fract_x
  _atom_site_fract_y
  _atom_site_fract_z
  _atom_site_occupancy
  N   N1        1.0  0.9037235989657172  0.5641447854285147  0.4077737072263985  1.0000
  C   C1        1.0  0.8321608073886557  0.5004968742316755  0.41034228684882734  1.0000
  C   C2        1.0  0.7429987151727574  0.4212968649692779  0.41353833031335274  1.0000
  C   C3        1.0  0.654915634310093  0.4975044718751018  0.4104632367232237  1.0000
  C   C4        1.0  0.5673853684101243  0.4227697342245456  0.41347883778965966  1.0000
  C   C5        1.0  0.47708361708135966  0.5013289703591683  0.41030869148591664  1.0000
  N   N2        1.0  0.40449269968386325  0.5644844355538727  0.4077599453805201  1.0000
  C   C6        1.0  0.5678745029541139  0.27151585616299934  0.4195821513019111  1.0000
  C   C7        1.0  0.655513376270605  0.19518696858624907  0.4226620474085194  1.0000
  C   C8        1.0  0.7432446049736712  0.26920751069797655  0.41967528534590604  1.0000
  Br  Br1       1.0  0.8614082797771396  0.15910614341762375  0.4241181240987608  1.0000
  H   H1        1.0  0.6544815065906325  0.6147134242874455  0.4057334859259845  1.0000
  H   H2        1.0  0.5005867104982871  0.21265736666026133  0.4219569090565013  1.0000
  H   H3        1.0  0.6551825860002108  0.07822724386930813  0.4273813640892776  1.0000
  C   C9        1.0  0.15708197262253343  0.14066944872926967  0.4084749181945031  1.0000
  C   C10       1.0  0.17445200919965909  0.22290124885471108  0.2781728761250639  1.0000
  C   C11       1.0  0.1827240447870644  0.15714831252339767  0.14786302888780115  1.0000
  C   C12       1.0  0.17375539065700085  0.0068093835744744684  0.14452350589338162  1.0000
  C   C13       1.0  0.1580895887808358  0.9236114632743909  0.27437286277908024  1.0000
  C   C14       1.0  0.15114358930565408  0.98794875075509  0.40707127045300645  1.0000
  N   N3        1.0  0.18121891159421977  0.9359935499694113  0.011523309822690345  1.0000
  C   C15       1.0  0.1977514593107954  0.012546152732238573  0.8708925761392737  1.0000
  H   H4        1.0  0.17609039469714416  0.4051068919995051  0.6450708543249717  1.0000
  H   H5        1.0  0.17938596349525926  0.33953345171552063  0.27640470668215  1.0000
  H   H6        1.0  0.1952129025113798  0.22481564730401457  0.04997368985548767  1.0000
  H   H7        1.0  0.15353575337413083  0.8071853987622408  0.2720995707736682  1.0000
  H   H8        1.0  0.18563404759481755  0.8599924094775625  0.7580702391126761  1.0000
  H   H9        1.0  0.17437822861703212  0.8236505837633207  0.014511860759392812  1.0000
  H   H10       1.0  0.13792694666245356  0.09083786819199147  0.8458553481549997  1.0000
  H   H11       1.0  0.2676898263218124  0.07014757400288185  0.8711232044411799  1.0000
  H   H12       1.0  0.20045158366527138  0.9342892988329271  0.7855775115897825  1.0000
  C   C16       1.0  0.15542353010883714  0.5602321331694537  0.9845820304450272  1.0000
  C   C17       1.0  0.23837891295039504  0.6073188411969117  0.05419786413432659  1.0000
  C   C18       1.0  0.31629806526219184  0.665746250819416  0.9742208428539056  1.0000
  C   C19       1.0  0.3121684634615014  0.6780156022142598  0.82354167562981  1.0000
  C   C20       1.0  0.23120787936968193  0.6297620280876621  0.7525861809630188  1.0000
  C   C21       1.0  0.15280207887621855  0.5683860464949351  0.830964159973411  1.0000
  C   C22       1.0  0.4001864276304743  0.7148426816866087  0.04714091429223388  1.0000
  N   N4        1.0  0.46761119580651345  0.7543029744286707  0.10575635875627687  1.0000
  H   H13       1.0  0.9206590766264837  0.5114308909535712  0.09250667145590374  1.0000
  H   H14       1.0  0.3720185639697746  0.7236896131354713  0.7606416290366741  1.0000
  H   H15       1.0  0.2309409577319024  0.6373465447306308  0.6355091816607202  1.0000
  H   H16       1.0  0.9957915546583883  0.5294723293446788  0.5536262626048609  1.0000
  Zn  Zn1       1.0  0.04823474849054054  0.5642390134244966  0.4077780707880184  1.0000
  Zn  Zn2       1.0  0.2599815885448833  0.5643784969324626  0.4077674280926231  1.0000
  C   C23       1.0  0.15333569097834274  0.5610976090789261  0.6709893106895395  1.0000
  C   C24       1.0  0.15488294513011083  0.5675217244310562  0.14455632650410144  1.0000
  C   C25       1.0  0.15227889950592408  0.827739613307166  0.40159386910494654  1.0000
  C   C26       1.0  0.1559396762581984  0.30087798762696444  0.41395184779536764  1.0000
  O   O1        1.0  0.2350583862573481  0.570014817302225  0.19824113322420422  1.0000
  O   O2        1.0  0.23387121087668583  0.5587092886376106  0.6172960133697187  1.0000
  O   O3        1.0  0.23301675050818793  0.7740260929228093  0.39975728584205333  1.0000
  O   O4        1.0  0.23591277463333296  0.35469802224853964  0.41577975268531936  1.0000
  O   O5        1.0  0.07230349014329907  0.7739194880623184  0.3997657461913706  1.0000
  O   O6        1.0  0.07315793859733624  0.5586044163068705  0.617304394008412  1.0000
  O   O7        1.0  0.07434511976104208  0.5699098780068017  0.19824778131730159  1.0000
  O   O8        1.0  0.07519950787074814  0.35459307367550164  0.4157865088410167  1.0000
