data_image0
_chemical_formula_structural       La4H32C72N12O32
_chemical_formula_sum              "La4 H32 C72 N12 O32"
_cell_length_a       10.395
_cell_length_b       10.779
_cell_length_c       21.445
_cell_angle_alpha    90.0
_cell_angle_beta     90.0
_cell_angle_gamma    112.05999999999999

_space_group_name_H-M_alt    "P 1"
_space_group_IT_number       1

loop_
  _space_group_symop_operation_xyz
  'x, y, z'

loop_
  _atom_site_type_symbol
  _atom_site_label
  _atom_site_symmetry_multiplicity
  _atom_site_fract_x
  _atom_site_fract_y
  _atom_site_fract_z
  _atom_site_occupancy
  La  La1       1.0  0.76694  0.75943  0.5278  1.0000
  La  La2       1.0  0.73306  0.24057  0.0278  1.0000
  La  La3       1.0  0.23306  0.24057  0.4722  1.0000
  La  La4       1.0  0.26694  0.75943  0.9721999999999998  1.0000
  H   H1        1.0  0.22889999999999996  0.8048999999999998  0.6735  1.0000
  H   H2        1.0  0.7825  0.1784  0.8408  1.0000
  H   H3        1.0  0.2869999999999999  0.4865999999999999  0.634  1.0000
  H   H4        1.0  0.6674  0.072  0.6635  1.0000
  H   H5        1.0  0.39979999999999993  0.9088  0.804  1.0000
  H   H6        1.0  0.011600000000000018  0.2999  0.8014999999999999  1.0000
  H   H7        1.0  0.2142  0.4959  0.8178999999999998  1.0000
  H   H8        1.0  0.5902  0.7149  0.7487  1.0000
  H   H9        1.0  0.2711  0.1951  0.1735  1.0000
  H   H10       1.0  0.7175  0.8216  0.3408  1.0000
  H   H11       1.0  0.21299999999999997  0.5134  0.134  1.0000
  H   H12       1.0  0.8325999999999999  0.9279999999999999  0.1635  1.0000
  H   H13       1.0  0.10020000000000001  0.0912  0.304  1.0000
  H   H14       1.0  0.4884  0.7001  0.30149999999999993  1.0000
  H   H15       1.0  0.2858  0.5041  0.3179  1.0000
  H   H16       1.0  0.9097999999999998  0.2851  0.2487  1.0000
  H   H17       1.0  0.7710999999999999  0.1951  0.3265  1.0000
  H   H18       1.0  0.2175  0.8216  0.1592  1.0000
  H   H19       1.0  0.7130000000000001  0.5134  0.366  1.0000
  H   H20       1.0  0.33259999999999995  0.9279999999999999  0.3365  1.0000
  H   H21       1.0  0.6002  0.0912  0.19599999999999998  1.0000
  H   H22       1.0  0.9884  0.7001  0.19850000000000004  1.0000
  H   H23       1.0  0.7857999999999999  0.5041  0.1821  1.0000
  H   H24       1.0  0.40979999999999994  0.2851  0.2513  1.0000
  H   H25       1.0  0.7288999999999999  0.8048999999999998  0.8265  1.0000
  H   H26       1.0  0.2824999999999999  0.1784  0.6592  1.0000
  H   H27       1.0  0.787  0.4865999999999999  0.866  1.0000
  H   H28       1.0  0.1674  0.072  0.8365  1.0000
  H   H29       1.0  0.8998000000000002  0.9088  0.6959999999999998  1.0000
  H   H30       1.0  0.5116  0.2999  0.6985  1.0000
  H   H31       1.0  0.7141999999999998  0.4959  0.6821  1.0000
  H   H32       1.0  0.0902  0.7149  0.7512999999999999  1.0000
  C   C1        1.0  0.5529  0.6613  0.62945  1.0000
  C   C2        1.0  0.7455  0.1413  0.7489999999999999  1.0000
  C   C3        1.0  0.7164  0.1277  0.8122  1.0000
  C   C4        1.0  0.5599  0.021399999999999995  0.90246  1.0000
  C   C5        1.0  0.5884  0.0384  0.83311  1.0000
  C   C6        1.0  0.5175999999999998  0.9802999999999998  0.72691  1.0000
  C   C7        1.0  0.08800000000000001  0.3834  0.71593  1.0000
  C   C8        1.0  0.22909999999999997  0.47639999999999993  0.72493  1.0000
  C   C9        1.0  0.3177  0.5186  0.67378  1.0000
  C   C10       1.0  0.41120000000000007  0.9058000000000002  0.67891  1.0000
  C   C11       1.0  0.6468  0.0655  0.70586  1.0000
  C   C12       1.0  0.4588  0.6619  0.85908  1.0000
  C   C13       1.0  0.48679999999999995  0.9659  0.79034  1.0000
  C   C14       1.0  0.9963  0.3053  0.75902  1.0000
  C   C15       1.0  0.4529  0.6093  0.68313  1.0000
  C   C16       1.0  0.2747  0.5236  0.7842699999999999  1.0000
  C   C17       1.0  0.4993  0.6552  0.74288  1.0000
  C   C18       1.0  0.4114  0.6128  0.7937799999999999  1.0000
  C   C19       1.0  0.9470999999999999  0.3387  0.12945  1.0000
  C   C20       1.0  0.7545  0.8587  0.249  1.0000
  C   C21       1.0  0.7836  0.8723  0.3122  1.0000
  C   C22       1.0  0.9400999999999999  0.9786  0.40246000000000004  1.0000
  C   C23       1.0  0.9116  0.9616  0.33311  1.0000
  C   C24       1.0  0.9823999999999999  0.0197  0.22691  1.0000
  C   C25       1.0  0.412  0.6166  0.21593  1.0000
  C   C26       1.0  0.27089999999999986  0.5236  0.22493  1.0000
  C   C27       1.0  0.1823  0.4814  0.17378  1.0000
  C   C28       1.0  0.0888  0.0942  0.17891  1.0000
  C   C29       1.0  0.8532000000000001  0.9345  0.20586  1.0000
  C   C30       1.0  0.041199999999999966  0.3381  0.35908  1.0000
  C   C31       1.0  0.013199999999999998  0.0341  0.29034  1.0000
  C   C32       1.0  0.5037  0.6947  0.25902  1.0000
  C   C33       1.0  0.0471  0.3907  0.18313  1.0000
  C   C34       1.0  0.2253  0.47639999999999993  0.28427  1.0000
  C   C35       1.0  0.0006999999999999912  0.3448  0.24288  1.0000
  C   C36       1.0  0.08860000000000003  0.3872  0.29378  1.0000
  C   C37       1.0  0.4471  0.3387  0.37054999999999993  1.0000
  C   C38       1.0  0.2545  0.8587  0.251  1.0000
  C   C39       1.0  0.2836  0.8723  0.18779999999999997  1.0000
  C   C40       1.0  0.44009999999999994  0.9786  0.09753999999999999  1.0000
  C   C41       1.0  0.4116  0.9616  0.16689  1.0000
  C   C42       1.0  0.4824  0.0197  0.27309  1.0000
  C   C43       1.0  0.912  0.6166  0.28407  1.0000
  C   C44       1.0  0.7709000000000001  0.5236  0.27507  1.0000
  C   C45       1.0  0.6823  0.4814  0.32622  1.0000
  C   C46       1.0  0.5888  0.0942  0.32109  1.0000
  C   C47       1.0  0.3532  0.9345  0.29414  1.0000
  C   C48       1.0  0.5412  0.3381  0.14092  1.0000
  C   C49       1.0  0.5132  0.0341  0.20966  1.0000
  C   C50       1.0  0.0037000000000000357  0.6947  0.24098  1.0000
  C   C51       1.0  0.5471  0.3907  0.31687  1.0000
  C   C52       1.0  0.7253  0.47639999999999993  0.21573  1.0000
  C   C53       1.0  0.5007  0.3448  0.25712  1.0000
  C   C54       1.0  0.5886  0.3872  0.20621999999999996  1.0000
  C   C55       1.0  0.05289999999999999  0.6613  0.87055  1.0000
  C   C56       1.0  0.24549999999999997  0.1413  0.7510000000000001  1.0000
  C   C57       1.0  0.21639999999999998  0.1277  0.6878  1.0000
  C   C58       1.0  0.059899999999999995  0.021399999999999995  0.59754  1.0000
  C   C59       1.0  0.0884  0.0384  0.66689  1.0000
  C   C60       1.0  0.01759999999999998  0.9802999999999998  0.77309  1.0000
  C   C61       1.0  0.588  0.3834  0.78407  1.0000
  C   C62       1.0  0.7291  0.47639999999999993  0.7750699999999999  1.0000
  C   C63       1.0  0.8177  0.5186  0.82622  1.0000
  C   C64       1.0  0.9112000000000001  0.9058000000000002  0.82109  1.0000
  C   C65       1.0  0.1468  0.0655  0.7941399999999998  1.0000
  C   C66       1.0  0.9588  0.6619  0.64092  1.0000
  C   C67       1.0  0.9868  0.9659  0.70966  1.0000
  C   C68       1.0  0.4963  0.3053  0.74098  1.0000
  C   C69       1.0  0.9529  0.6093  0.81687  1.0000
  C   C70       1.0  0.7747  0.5236  0.71573  1.0000
  C   C71       1.0  0.9993  0.6552  0.75712  1.0000
  C   C72       1.0  0.9114  0.6128  0.70622  1.0000
  N   N1        1.0  0.8778  0.2371  0.72669  1.0000
  N   N2        1.0  0.8979  0.275  0.66625  1.0000
  N   N3        1.0  0.025799999999999986  0.3625  0.6595  1.0000
  N   N4        1.0  0.6222  0.7629  0.22669  1.0000
  N   N5        1.0  0.6021  0.725  0.16625  1.0000
  N   N6        1.0  0.4742  0.6375  0.1595  1.0000
  N   N7        1.0  0.1221999999999999  0.7629  0.27331  1.0000
  N   N8        1.0  0.1020999999999999  0.725  0.33375  1.0000
  N   N9        1.0  0.9742  0.6375  0.3405  1.0000
  N   N10       1.0  0.3778  0.2371  0.77331  1.0000
  N   N11       1.0  0.3979  0.275  0.83375  1.0000
  N   N12       1.0  0.5258  0.3625  0.8404999999999999  1.0000
  O   O1        1.0  0.5851  0.7235  0.8698899999999999  1.0000
  O   O2        1.0  0.5239  0.601  0.57676  1.0000
  O   O3        1.0  0.2899999999999999  0.8385999999999999  0.70297  1.0000
  O   O4        1.0  0.6575  0.0845  0.93828  1.0000
  O   O5        1.0  0.6623  0.7597  0.63792  1.0000
  O   O6        1.0  0.4376999999999999  0.9095  0.62362  1.0000
  O   O7        1.0  0.3656  0.6352  0.90033  1.0000
  O   O8        1.0  0.4416  0.9464  0.91962  1.0000
  O   O9        1.0  0.9149  0.2765  0.36989  1.0000
  O   O10       1.0  0.9760999999999999  0.399  0.07676  1.0000
  O   O11       1.0  0.21  0.1614  0.20297  1.0000
  O   O12       1.0  0.8424999999999999  0.9155  0.43827999999999995  1.0000
  O   O13       1.0  0.8376999999999999  0.24029999999999999  0.13792  1.0000
  O   O14       1.0  0.0623  0.0905  0.12362  1.0000
  O   O15       1.0  0.1344  0.3648  0.40032999999999996  1.0000
  O   O16       1.0  0.058399999999999994  0.0536  0.41961999999999994  1.0000
  O   O17       1.0  0.41490000000000005  0.2765  0.13011  1.0000
  O   O18       1.0  0.47609999999999997  0.399  0.42324  1.0000
  O   O19       1.0  0.71  0.1614  0.29703  1.0000
  O   O20       1.0  0.3425  0.9155  0.06172  1.0000
  O   O21       1.0  0.3377  0.24029999999999999  0.36208  1.0000
  O   O22       1.0  0.5623  0.0905  0.37638  1.0000
  O   O23       1.0  0.6344  0.3648  0.09967  1.0000
  O   O24       1.0  0.5584  0.0536  0.08038  1.0000
  O   O25       1.0  0.08509999999999997  0.7235  0.63011  1.0000
  O   O26       1.0  0.02389999999999992  0.601  0.92324  1.0000
  O   O27       1.0  0.7899999999999998  0.8385999999999999  0.7970299999999999  1.0000
  O   O28       1.0  0.1575  0.0845  0.56172  1.0000
  O   O29       1.0  0.1623  0.7597  0.86208  1.0000
  O   O30       1.0  0.9377  0.9095  0.87638  1.0000
  O   O31       1.0  0.8655999999999999  0.6352  0.59967  1.0000
  O   O32       1.0  0.9416  0.9464  0.58038  1.0000
