data_image0
_chemical_formula_structural       NC9NC3SH6C7F3H5C7NC2NH8Zn2C4O8
_chemical_formula_sum              "N4 C32 S1 H19 F3 Zn2 O8"
_cell_length_a       16.77567553997237
_cell_length_b       9.272718291674593
_cell_length_c       9.27399911348925
_cell_angle_alpha    85.49165257692455
_cell_angle_beta     90.06803896743476
_cell_angle_gamma    90.46558260785916

_space_group_name_H-M_alt    "P 1"
_space_group_IT_number       1

loop_
  _space_group_symop_operation_xyz
  'x, y, z'

loop_
  _atom_site_type_symbol
  _atom_site_label
  _atom_site_symmetry_multiplicity
  _atom_site_fract_x
  _atom_site_fract_y
  _atom_site_fract_z
  _atom_site_occupancy
  N   N1        1.0  0.7491964640163832  0.6121010692956861  0.42790865113326126  1.0000
  C   C1        1.0  0.6940748134317394  0.6664506396946341  0.47455694588124087  1.0000
  C   C2        1.0  0.6256680718734136  0.7338948673813979  0.5324439149332294  1.0000
  C   C3        1.0  0.6270635979614027  0.8307511041580556  0.6388252454644753  1.0000
  C   C4        1.0  0.5511162333722789  0.8787000279782115  0.674213207209541  1.0000
  C   C5        1.0  0.4896098549282766  0.819394737132962  0.5952806956464565  1.0000
  C   C6        1.0  0.40296178663047333  0.8482209217878932  0.6075606610703574  1.0000
  C   C7        1.0  0.3467149594597242  0.7604445848553238  0.5421112075910581  1.0000
  C   C8        1.0  0.264929510237483  0.787049440129345  0.553199899773464  1.0000
  C   C9        1.0  0.2080323362527741  0.6963245429621543  0.4861771707030409  1.0000
  N   N2        1.0  0.1623039467065097  0.6233947242381701  0.43230079604582494  1.0000
  C   C10       1.0  0.2385602038213641  0.9017802172839293  0.6295616512293318  1.0000
  C   C11       1.0  0.29371629493018525  0.9897372979491174  0.6944994716848885  1.0000
  C   C12       1.0  0.3753413865652822  0.9635327879980495  0.6837412465194193  1.0000
  S   S1        1.0  0.5310191992276991  0.7070592977240648  0.48205040619894807  1.0000
  H   H1        1.0  0.681158726304732  0.8656728043071439  0.6899584063407704  1.0000
  H   H2        1.0  0.5422805931904454  0.9533563732193043  0.7564521183300175  1.0000
  H   H3        1.0  0.3660691444001272  0.6707132794051335  0.4831350411141651  1.0000
  H   H4        1.0  0.17545858060924696  0.9233008797390708  0.6387149894404275  1.0000
  H   H5        1.0  0.27318537483728855  0.0787928920541061  0.7531176356988558  1.0000
  H   H6        1.0  0.41632805039305926  0.03484912917132466  0.7340305805425724  1.0000
  C   C13       1.0  0.9575002024916863  0.1944406832274701  0.4269352590006299  1.0000
  C   C14       1.0  0.9092313130415274  0.27529760344962173  0.32668368339164866  1.0000
  C   C15       1.0  0.8552856577524949  0.20705638505905832  0.23775923264745694  1.0000
  C   C16       1.0  0.8517309192320748  0.05559744900261588  0.24615902328802883  1.0000
  C   C17       1.0  0.9000694280417773  0.9738104163948146  0.3432883590699132  1.0000
  C   C18       1.0  0.9540078270263513  0.041044135135536175  0.43328674801745604  1.0000
  C   C19       1.0  0.8055963626262637  0.2955513287938274  0.12831098067384805  1.0000
  F   F1        1.0  0.7849455007650958  0.4259516933391474  0.18054264707423526  1.0000
  F   F2        1.0  0.736111742438413  0.22251246986295503  0.09741958044211452  1.0000
  F   F3        1.0  0.8490031077322249  0.32261514278471703  0.002352520617932455  1.0000
  H   H7        1.0  0.051146114082437855  0.27299620089478727  0.7393965183208906  1.0000
  H   H8        1.0  0.9124346473034921  0.39241218826276475  0.3200005798884058  1.0000
  H   H9        1.0  0.8121108694740027  2.2816030644577702e-05  0.1763364925204569  1.0000
  H   H10       1.0  0.8968098252642691  0.8569353960234706  0.34519547656179617  1.0000
  H   H11       1.0  0.12456962098367973  0.9282887433631851  0.6088043291818224  1.0000
  C   C20       1.0  0.9571154929637922  0.6214693204781208  0.006301908103013784  1.0000
  C   C21       1.0  0.019973225562468718  0.5541550672439424  0.08493387222047022  1.0000
  C   C22       1.0  0.07759677611578075  0.47643418939011783  0.016296051327250535  1.0000
  C   C23       1.0  0.07391383776985626  0.46333213943318224  0.8668624007026424  1.0000
  C   C24       1.0  0.012245741257107312  0.5331135278386399  0.7867028106726566  1.0000
  C   C25       1.0  0.9543925499333802  0.6140155094512203  0.8539200095101642  1.0000
  C   C26       1.0  0.13544420291103965  0.3787922096489822  0.7961704748689256  1.0000
  N   N3        1.0  0.20240332761759938  0.33025063421891115  0.8645411349801067  1.0000
  C   C27       1.0  0.24128895475976544  0.25917880617754446  0.7650872934969186  1.0000
  C   C28       1.0  0.19771792683422706  0.2651725124104032  0.639136178058751  1.0000
  N   N4        1.0  0.13114944466107636  0.34033300938740035  0.6588423180019157  1.0000
  H   H12       1.0  0.8715132703784256  0.8010970602444069  0.27334195871262423  1.0000
  H   H13       1.0  0.02356640765448081  0.5585434489499437  0.20115559744311384  1.0000
  H   H14       1.0  0.12456222493472802  0.4246087017143749  0.08112239123309051  1.0000
  H   H15       1.0  0.010290064622271666  0.5291592602070572  0.6705475890884163  1.0000
  H   H16       1.0  0.829685508507041  0.6919733222684108  0.5674459109072995  1.0000
  H   H17       1.0  0.2979036892226137  0.20585654071134463  0.7836436590178883  1.0000
  H   H18       1.0  0.2132169508037245  0.2174574060371186  0.5402450675996979  1.0000
  H   H19       1.0  0.08596390555140876  0.3609495928526028  0.5828213781844922  1.0000
  Zn  Zn1       1.0  0.86841035185636  0.6153562521440397  0.42918444345132634  1.0000
  Zn  Zn2       1.0  0.04309006433662655  0.6201276777747626  0.43103676747434666  1.0000
  C   C29       1.0  0.9549291546048929  0.6096817700751065  0.6936589718139299  1.0000
  C   C30       1.0  0.9565731611271969  0.6258040295170655  0.16656241463569055  1.0000
  C   C31       1.0  0.95468234382999  0.8810685296743648  0.4263350161434949  1.0000
  C   C32       1.0  0.9568199191932235  0.3544155357271763  0.43388643362475454  1.0000
  O   O1        1.0  0.022681216086033913  0.6290632398376079  0.22105020475895773  1.0000
  O   O2        1.0  0.02139896542570873  0.6100428775978288  0.64057662915684  1.0000
  O   O3        1.0  0.02119876416136868  0.8291910805221955  0.42471064536020253  1.0000
  O   O4        1.0  0.022881358049106293  0.40991504654851446  0.4369160797899996  1.0000
  O   O5        1.0  0.8886189985342849  0.8255688817436704  0.42330513049598695  1.0000
  O   O6        1.0  0.8888191928979066  0.606422411383317  0.6391710503343082  1.0000
  O   O7        1.0  0.8901014493926002  0.625442738650579  0.21964289040094132  1.0000
  O   O8        1.0  0.8903015910473452  0.40629453409959476  0.43550887355789264  1.0000
