data_image0
_chemical_formula_structural       NC9NC3OH6C12H10C6OCH7Zn2C4O8
_chemical_formula_sum              "N2 C35 O10 H23 Zn2"
_cell_length_a       15.78231758774541
_cell_length_b       10.299137764757564
_cell_length_c       9.273891588657152
_cell_angle_alpha    86.05603520339396
_cell_angle_beta     89.76748324947235
_cell_angle_gamma    89.65025930418041

_space_group_name_H-M_alt    "P 1"
_space_group_IT_number       1

loop_
  _space_group_symop_operation_xyz
  'x, y, z'

loop_
  _atom_site_type_symbol
  _atom_site_label
  _atom_site_symmetry_multiplicity
  _atom_site_fract_x
  _atom_site_fract_y
  _atom_site_fract_z
  _atom_site_occupancy
  N   N1        1.0  0.8033646663500739  0.400427949326315  0.41223957616384754  1.0000
  C   C1        1.0  0.7547283439755533  0.31857627006259326  0.43899716373694236  1.0000
  C   C2        1.0  0.6943445723459267  0.21697844342022415  0.4722102227922293  1.0000
  C   C3        1.0  0.713844846957157  0.08935448180356427  0.5138430429939884  1.0000
  C   C4        1.0  0.6370353328638799  0.02750358917585061  0.5341026792309671  1.0000
  C   C5        1.0  0.5753746600364373  0.12196030103539354  0.5033354430206503  1.0000
  C   C6        1.0  0.4822611626110071  0.1044975296804411  0.5091256830315066  1.0000
  C   C7        1.0  0.428652673122802  0.21157455740829545  0.4740640010449079  1.0000
  C   C8        1.0  0.3404276987580313  0.19725556840385064  0.47881980645638533  1.0000
  C   C9        1.0  0.2861267166664091  0.3074479831203585  0.4427288342078872  1.0000
  N   N2        1.0  0.2424816083688366  0.3960284561376919  0.41371491988964837  1.0000
  C   C10       1.0  0.3051297159421557  0.07570020093797991  0.518691733377328  1.0000
  C   C11       1.0  0.35780753955671957  0.968844591412711  0.5536857621169895  1.0000
  C   C12       1.0  0.44584634838442455  0.9827702033025796  0.549059194675108  1.0000
  O   O1        1.0  0.6119756287199484  0.2339029001419477  0.46676410222916703  1.0000
  H   H1        1.0  0.7762507008562901  0.04631464300924759  0.5278266871572934  1.0000
  H   H2        1.0  0.6281737890604879  0.9258035251701733  0.5672956787131673  1.0000
  H   H3        1.0  0.4553790174266531  0.3061661440745815  0.4430313316877639  1.0000
  H   H4        1.0  0.23699777391451993  0.06357274213640272  0.5227172976372911  1.0000
  H   H5        1.0  0.3303517043822204  0.8748996857597247  0.5845067461756541  1.0000
  H   H6        1.0  0.48482475614465204  0.8981331101388943  0.5767860861227398  1.0000
  C   C13       1.0  0.022845113007020412  0.01683037079986694  0.41313410781483784  1.0000
  C   C14       1.0  0.023305008582880742  0.025445072342443524  0.26136381749397875  1.0000
  C   C15       1.0  0.023622457021439395  0.9126792292979077  0.18425508178645833  1.0000
  C   C16       1.0  0.023473742874583262  0.7901849698011731  0.2609680215043453  1.0000
  C   C17       1.0  0.023009195696211286  0.7796160776256066  0.41283288209223046  1.0000
  C   C18       1.0  0.022699161214479794  0.8934486483095256  0.48798098626656533  1.0000
  C   C19       1.0  0.024107977647688673  0.9228376560157405  0.023697105958566226  1.0000
  C   C20       1.0  0.07546411719050122  0.8393781382532589  0.9463291827496993  1.0000
  C   C21       1.0  0.07581582759053276  0.8491916353277226  0.7951968156101246  1.0000
  C   C22       1.0  0.025029557296131426  0.9420756997384091  0.7197245636709471  1.0000
  C   C23       1.0  0.9737856241605399  0.02540462776017538  0.7952314709808146  1.0000
  C   C24       1.0  0.9732208623794545  0.016088169979649576  0.9463640962966431  1.0000
  H   H7        1.0  0.02262496494834986  0.3409929571896055  0.47151485238526525  1.0000
  H   H8        1.0  0.024589954156387192  0.12008247726818098  0.2027662871018563  1.0000
  H   H9        1.0  0.02254956246431526  0.7029467242737044  0.2020895122303572  1.0000
  H   H10       1.0  0.022342113592780825  0.8860884250662544  0.6050448860336131  1.0000
  H   H11       1.0  0.021593614331051326  0.5523816798435506  0.6994680303173224  1.0000
  H   H12       1.0  0.11611922811935632  0.7677632613148886  0.0026486973083321677  1.0000
  H   H13       1.0  0.1156786836250245  0.7849057042900924  0.7365597394017808  1.0000
  H   H14       1.0  0.02538433021248542  0.9494797404854485  0.602738042883458  1.0000
  H   H15       1.0  0.9342783493124082  0.09711111043819451  0.7366198820122465  1.0000
  H   H16       1.0  0.932224483664838  0.08057428349655746  0.0027028003823354988  1.0000
  C   C25       1.0  0.024314498782950007  0.3947695738820858  0.989714176515654  1.0000
  C   C26       1.0  0.09371564694675588  0.4489320715184217  0.05849934475386798  1.0000
  C   C27       1.0  0.15831269104032  0.5128410270442623  0.9788810892102622  1.0000
  C   C28       1.0  0.15373959908870008  0.5229106149272598  0.8274211459653387  1.0000
  C   C29       1.0  0.08611840489378308  0.4679438687284291  0.7573000712269722  1.0000
  C   C30       1.0  0.02153979836391962  0.40167682884845995  0.8362527729913807  1.0000
  O   O2        1.0  0.22539951799115654  0.5654276068035746  0.05429202226727825  1.0000
  C   C31       1.0  0.29518837808017423  0.6330810767602074  0.9874230825779834  1.0000
  H   H17       1.0  0.8227570091405799  0.3170181937827125  0.1000857885823212  1.0000
  H   H18       1.0  0.20255997965474737  0.5720168270655591  0.7626434134298812  1.0000
  H   H19       1.0  0.08543616317827868  0.47464447673125953  0.6402139545190412  1.0000
  H   H20       1.0  0.8871264836451732  0.34416854038166766  0.5603818119379032  1.0000
  H   H21       1.0  0.272462824288916  0.7211988562747522  0.922916378092554  1.0000
  H   H22       1.0  0.3305039656999693  0.5682685944610415  0.917154570277952  1.0000
  H   H23       1.0  0.33856827980177506  0.6636908534420639  0.07240009171503914  1.0000
  Zn  Zn1       1.0  0.9300842987175899  0.3991549492467303  0.4126736466257692  1.0000
  Zn  Zn2       1.0  0.11576190660840126  0.39729095208342996  0.41329263633122526  1.0000
  C   C32       1.0  0.022061286981142066  0.39519719598929587  0.6762409071527712  1.0000
  C   C33       1.0  0.02378694582738338  0.40125032488429196  0.14972552338737755  1.0000
  C   C34       1.0  0.0229926514742038  0.6353865210827665  0.4071460319431355  1.0000
  C   C35       1.0  0.022855517387978967  0.16105944063294772  0.4188204758478127  1.0000
  O   O3        1.0  0.09407357754491218  0.40271228074262533  0.20366169872427342  1.0000
  O   O4        1.0  0.09269966451454614  0.39231952623162614  0.6227741161469131  1.0000
  O   O5        1.0  0.09345079832482979  0.5862754656179463  0.40547809682425995  1.0000
  O   O6        1.0  0.09332238073166604  0.20875635040146956  0.42095760975897045  1.0000
  O   O7        1.0  0.9525237612316952  0.5876895515661333  0.4050086729792108  1.0000
  O   O8        1.0  0.9517726280051245  0.39373517197512986  0.6223046148322522  1.0000
  O   O9        1.0  0.9531465467621584  0.4041278670862256  0.20319046447838285  1.0000
  O   O10       1.0  0.9523953495892452  0.2101719283373484  0.4204864835822235  1.0000
