data_image0
_chemical_formula_structural       NC6NSH2C10H8C2NC2NH2Zn2C4O8
_chemical_formula_sum              "N4 C24 S1 H12 Zn2 O8"
_cell_length_a       14.474562073675546
_cell_length_b       12.925547966005277
_cell_length_c       10.619349475309857
_cell_angle_alpha    84.94023932067287
_cell_angle_beta     90.09214881744109
_cell_angle_gamma    88.12692530326781

_space_group_name_H-M_alt    "P 1"
_space_group_IT_number       1

loop_
  _space_group_symop_operation_xyz
  'x, y, z'

loop_
  _atom_site_type_symbol
  _atom_site_label
  _atom_site_symmetry_multiplicity
  _atom_site_fract_x
  _atom_site_fract_y
  _atom_site_fract_z
  _atom_site_occupancy
  N   N1        1.0  0.8351938504697156  0.13404246329485045  0.595348975938363  1.0000
  C   C1        1.0  0.7576746005148355  0.11608784121139656  0.5879389425767616  1.0000
  C   C2        1.0  0.6614706846671043  0.09380780349810691  0.5787436167417463  1.0000
  C   C3        1.0  0.6267205959840976  0.0024874823660019354  0.5410541548244963  1.0000
  C   C4        1.0  0.5300045058860695  0.002487582279332657  0.5410538525445632  1.0000
  C   C5        1.0  0.49001250548833897  0.09380791148097377  0.5787431571665391  1.0000
  C   C6        1.0  0.392529661500597  0.11608801285785406  0.5879387094361819  1.0000
  N   N2        1.0  0.3139798053091557  0.13404254709020796  0.595348876046935  1.0000
  S   S1        1.0  0.5734162836975915  0.17482694450664904  0.6121814645139696  1.0000
  H   H1        1.0  0.6696607444764214  0.9379068272416555  0.5144007856384327  1.0000
  H   H2        1.0  0.490771386808407  0.9379070563352567  0.5144001443342063  1.0000
  C   C7        1.0  0.08347094233099073  0.8297076470360829  0.5994624107733193  1.0000
  C   C8        1.0  0.1701910974837832  0.7868746244166175  0.6395821792526897  1.0000
  C   C9        1.0  0.1874780794134523  0.6795066108871864  0.6475796265206912  1.0000
  C   C10       1.0  0.11830390599389526  0.6129513600350924  0.6155772379552378  1.0000
  C   C11       1.0  0.13518037028055824  0.5050099748563477  0.6233850075541778  1.0000
  C   C12       1.0  0.06571180494771389  0.4383693246483105  0.5912464977308538  1.0000
  C   C13       1.0  0.9789255232440759  0.48120150596242045  0.55109597273665  1.0000
  C   C14       1.0  0.9616275205915447  0.5885634363079506  0.5430931751976109  1.0000
  C   C15       1.0  0.030803627420658446  0.6551116508936791  0.575096449795683  1.0000
  C   C16       1.0  0.013939072767517496  0.7630499688233701  0.5672942361798652  1.0000
  H   H3        1.0  0.12376855038460419  0.08700054462538875  0.6181058706839624  1.0000
  H   H4        1.0  0.22493375959672796  0.8363747030946783  0.6649084787798678  1.0000
  H   H5        1.0  0.2549656476725646  0.648555268245328  0.6788014491615542  1.0000
  H   H6        1.0  0.20241323559166635  0.4731106550739167  0.6544895487567977  1.0000
  H   H7        1.0  0.18319982043709437  0.20493315521745542  0.6456000039160203  1.0000
  H   H8        1.0  0.9241991677198204  0.43166140036896167  0.525777657212817  1.0000
  H   H9        1.0  0.8941396703675535  0.6195125800000871  0.5118707661676662  1.0000
  H   H10       1.0  0.9467086736105961  0.7949903136124132  0.5361907077216352  1.0000
  C   C17       1.0  0.07415549201700886  0.13399772475930583  0.22547396153827567  1.0000
  C   C18       1.0  0.9916983760864008  0.12628207529474578  0.15802907965145163  1.0000
  N   N3        1.0  0.9942268244162052  0.1265185450191595  0.030112904648838423  1.0000
  C   C19       1.0  0.0750272154768494  0.1340792660212213  0.9652348908348949  1.0000
  C   C20       1.0  0.15754140794703564  0.14180071317169382  0.03271643595630236  1.0000
  N   N4        1.0  0.15500751618947078  0.14156357846225132  0.16062825336253095  1.0000
  H   H11       1.0  0.9259685939231442  0.1201314607869923  0.20606490496119756  1.0000
  H   H12       1.0  0.22327400765431027  0.14795138711845723  0.9846689758181623  1.0000
  Zn  Zn1       1.0  0.9733612284116246  0.1340397046706976  0.595356264164757  1.0000
  Zn  Zn2       1.0  0.1758126842040384  0.13403679511585476  0.5953520399789041  1.0000
  C   C21       1.0  0.0749808711554871  0.12993523038093047  0.8254599840956761  1.0000
  C   C22       1.0  0.07419521421630804  0.13814257701639465  0.3652484259776143  1.0000
  C   C23       1.0  0.06905798748098044  0.3233187795957921  0.5877801805023117  1.0000
  C   C24       1.0  0.08011806521706344  0.9447577826784821  0.6029283135325443  1.0000
  O   O1        1.0  0.1510379496573772  0.1395280018387483  0.41215647107262354  1.0000
  O   O2        1.0  0.15179412863734537  0.12854681540897572  0.7785483809104939  1.0000
  O   O3        1.0  0.14701029101315188  0.28470647722801457  0.5866202433606698  1.0000
  O   O4        1.0  0.15582171787099883  0.983368347423948  0.6040845140824838  1.0000
  O   O5        1.0  0.9933521256578777  0.2847081523647246  0.5866237900559788  1.0000
  O   O6        1.0  0.9981359268690356  0.12854973567085715  0.7785518436390376  1.0000
  O   O7        1.0  0.9973797472196576  0.13953088581914014  0.4121584199239332  1.0000
  O   O8        1.0  0.00216351575706497  0.983371224002222  0.6040865574685585  1.0000
