data_image0
_chemical_formula_structural       NC10NC2SH6C10FC2H9C10IC2H9Zn2C4O8
_chemical_formula_sum              "N2 C40 S1 H24 F1 I1 Zn2 O8"
_cell_length_a       18.726821288119407
_cell_length_b       10.299764965457928
_cell_length_c       10.299773630820606
_cell_angle_alpha    85.54414550411518
_cell_angle_beta     90.00156796559057
_cell_angle_gamma    90.73449845769436

_space_group_name_H-M_alt    "P 1"
_space_group_IT_number       1

loop_
  _space_group_symop_operation_xyz
  'x, y, z'

loop_
  _atom_site_type_symbol
  _atom_site_label
  _atom_site_symmetry_multiplicity
  _atom_site_fract_x
  _atom_site_fract_y
  _atom_site_fract_z
  _atom_site_occupancy
  N   N1        1.0  0.6726280349225291  0.4371367409200788  0.5662584740227641  1.0000
  C   C1        1.0  0.6133698497761355  0.4037826770811353  0.5690787341030628  1.0000
  C   C2        1.0  0.5398304984914949  0.3623948821441303  0.5725779348465381  1.0000
  C   C3        1.0  0.515491858098657  0.2344161086507559  0.5823158698816095  1.0000
  C   C4        1.0  0.44086593018294074  0.22337657467474492  0.583196437559369  1.0000
  C   C5        1.0  0.4062551143269532  0.3432285992111125  0.5741848235656133  1.0000
  C   C6        1.0  0.3279024052979428  0.36446471492574034  0.572452161112291  1.0000
  C   C7        1.0  0.2794937081073794  0.26110430223921366  0.6045261751757809  1.0000
  C   C8        1.0  0.2058780347150274  0.2822452122762234  0.6026544407975954  1.0000
  C   C9        1.0  0.17946963813894373  0.40671835698772624  0.5689230714777207  1.0000
  C   C10       1.0  0.103666682570598  0.42828399145651047  0.5670582137422577  1.0000
  N   N2        1.0  0.0427276652189025  0.445620965602567  0.5655588198860346  1.0000
  C   C11       1.0  0.2269732798829624  0.5102001618936984  0.5372075118897712  1.0000
  C   C12       1.0  0.3006067929746296  0.4893882011299269  0.5390453828189441  1.0000
  S   S1        1.0  0.46957146706997893  0.4619822599279496  0.5648636440686536  1.0000
  H   H1        1.0  0.5504033769251445  0.1512240240428766  0.5882240178203231  1.0000
  H   H2        1.0  0.4137686898243106  0.12984063008932448  0.5889256227184663  1.0000
  H   H3        1.0  0.2979924260120533  0.16395635309798773  0.6323947969257357  1.0000
  H   H4        1.0  0.1695623428284165  0.20145820331345488  0.6278306789025185  1.0000
  H   H5        1.0  0.207119852980724  0.6070491193780132  0.5109402535800565  1.0000
  H   H6        1.0  0.3359670168574629  0.5713060135414326  0.5134830977673347  1.0000
  C   C13       1.0  0.8576139134222919  0.06001182859982923  0.5659067761027188  1.0000
  C   C14       1.0  0.8622543486316979  0.06972793830456617  0.4294221427943712  1.0000
  C   C15       1.0  0.8646742999017294  0.9575135124985593  0.36027017697344577  1.0000
  C   C16       1.0  0.8623905840295545  0.8344434547111413  0.4294373578380905  1.0000
  C   C17       1.0  0.8577486290946604  0.8227359929138766  0.5659217414162834  1.0000
  C   C18       1.0  0.8553866770584391  0.936078020462579  0.6333919272151446  1.0000
  C   C19       1.0  0.8695841782999612  0.9688459591361501  0.21587857181878656  1.0000
  C   C20       1.0  0.9149609980385821  0.8870859000721706  0.15110916718361111  1.0000
  C   C21       1.0  0.9195005556240986  0.8979833816970008  0.015186165925053396  1.0000
  C   C22       1.0  0.8788807713068696  0.99030328618206  0.9424729749901419  1.0000
  F   F1        1.0  0.883361888219311  0.0006460588206969188  0.8106852634110443  1.0000
  C   C23       1.0  0.8336409897806449  0.07195983315275534  0.005629177936061988  1.0000
  C   C24       1.0  0.828937669704021  0.06152395507531372  0.1415339991068989  1.0000
  H   H7        1.0  0.8558133268378433  0.3837624956700839  0.6179130170292564  1.0000
  H   H8        1.0  0.8649839384722039  0.16482065759315592  0.37668257975041425  1.0000
  H   H9        1.0  0.8632549008821425  0.7476453878492517  0.37649013138126314  1.0000
  H   H10       1.0  0.8518061724929002  0.9278144328749072  0.7386832503604766  1.0000
  H   H11       1.0  0.8560116405890627  0.49082150115779705  0.6179351928168577  1.0000
  H   H12       1.0  0.9475874053914337  0.8159649105324419  0.2055991007837401  1.0000
  H   H13       1.0  0.9547108535137171  0.8349304768229309  0.9663148556843799  1.0000
  H   H14       1.0  0.8020072451520475  0.14326760817741185  0.9493175743158958  1.0000
  H   H15       1.0  0.7928655800414897  0.12469197147109946  0.18837721137866414  1.0000
  C   C25       1.0  0.8576624477328568  0.4414916148820125  0.1845441805907244  1.0000
  C   C26       1.0  0.9296692121928234  0.481333855747556  0.1804564433825435  1.0000
  C   C27       1.0  0.9661745685148654  0.5014025254818583  0.061255881589077354  1.0000
  C   C28       1.0  0.9297071933301658  0.48109593838318176  0.9451885244717347  1.0000
  C   C29       1.0  0.8577000709002185  0.44125624190578216  0.9472843081882347  1.0000
  C   C30       1.0  0.8220809959644718  0.4216765065242508  0.06744277712647584  1.0000
  C   C31       1.0  0.04235090936975273  0.5435508963381791  0.05798500692049435  1.0000
  C   C32       1.0  0.09106926405010296  0.4886541484704939  0.974444073313315  1.0000
  C   C33       1.0  0.162747291428482  0.5284505595092229  0.9715668599206787  1.0000
  C   C34       1.0  0.18662495007157398  0.6233794398054575  0.0517883575857756  1.0000
  I   I1        1.0  0.2947798092439562  0.683223288422673  0.04714260353067856  1.0000
  C   C35       1.0  0.13873333336101035  0.6785971793168603  0.1350925727429222  1.0000
  C   C36       1.0  0.06701525096700056  0.639051011016711  0.13837422147901401  1.0000
  H   H16       1.0  0.8302153986130564  0.4263666106084196  0.5135507008627829  1.0000
  H   H17       1.0  0.9578103086793727  0.49513081993253666  0.27031663415656637  1.0000
  H   H18       1.0  0.9573272062788636  0.49815124702536684  0.8529342611057301  1.0000
  H   H19       1.0  0.7665309040022572  0.3909410692046665  0.06982787353559705  1.0000
  H   H20       1.0  0.83027093826287  0.4260200879085867  0.6206336636744454  1.0000
  H   H21       1.0  0.0739394467103025  0.4138018611859028  0.912636773799788  1.0000
  H   H22       1.0  0.19972763469705868  0.4852128563511696  0.9071875996671768  1.0000
  H   H23       1.0  0.15699448723336373  0.752400744448489  0.19709906721896364  1.0000
  H   H24       1.0  0.03067401356067001  0.6843173151038282  0.20247823929328512  1.0000
  Zn  Zn1       1.0  0.7794307944653444  0.43958161527102757  0.5660640707145488  1.0000
  Zn  Zn2       1.0  0.9359248946822306  0.44316542450147073  0.5657638683145626  1.0000
  C   C37       1.0  0.8576904581906557  0.43612701314611085  0.8031100209352345  1.0000
  C   C38       1.0  0.8576669401633018  0.4466217043338026  0.32871804231467955  1.0000
  C   C39       1.0  0.8577192212196806  0.6785664026775314  0.5607437366780699  1.0000
  C   C40       1.0  0.8576381234616403  0.20418075326306417  0.5710843958824983  1.0000
  O   O1        1.0  0.9170571423198607  0.44969778042948527  0.37699018199624534  1.0000
  O   O2        1.0  0.9170756568802545  0.43576998573024506  0.7546096607118818  1.0000
  O   O3        1.0  0.9170980828685534  0.6315428400906932  0.5588971729548438  1.0000
  O   O4        1.0  0.9170346629275627  0.253924934166357  0.5727025724809387  1.0000
  O   O5        1.0  0.7983209728162562  0.628822104384579  0.5591253666437855  1.0000
  O   O6        1.0  0.7982985470968378  0.43305081034188736  0.7548377851857827  1.0000
  O   O7        1.0  0.7982800324989123  0.4469785602683738  0.37721674506370645  1.0000
  O   O8        1.0  0.7982575531068575  0.2512057046863636  0.5729292329163582  1.0000
