data_image0
_chemical_formula_structural       NC9NC3OH6C6OCH8C9H8Zn2C4O8
_chemical_formula_sum              "N2 C32 O10 H22 Zn2"
_cell_length_a       15.78231758774541
_cell_length_b       9.273888216677433
_cell_length_c       9.275155815604963
_cell_angle_alpha    86.25620799071866
_cell_angle_beta     90.4446892459172
_cell_angle_gamma    89.05820199757645

_space_group_name_H-M_alt    "P 1"
_space_group_IT_number       1

loop_
  _space_group_symop_operation_xyz
  'x, y, z'

loop_
  _atom_site_type_symbol
  _atom_site_label
  _atom_site_symmetry_multiplicity
  _atom_site_fract_x
  _atom_site_fract_y
  _atom_site_fract_z
  _atom_site_occupancy
  N   N1        1.0  0.7829158708792315  0.5558046976628563  0.418323192426743  1.0000
  C   C1        1.0  0.7350157190841091  0.46490389606641386  0.4447306600774808  1.0000
  C   C2        1.0  0.6755457167672548  0.35207390918135895  0.47750913518616295  1.0000
  C   C3        1.0  0.6961932251717858  0.21034050795367362  0.5185960521391944  1.0000
  C   C4        1.0  0.6199402760172161  0.14165166265447393  0.5385911183298839  1.0000
  C   C5        1.0  0.557430834796957  0.24655099351396517  0.5082279108078294  1.0000
  C   C6        1.0  0.46447496395358895  0.22715758347010764  0.5139434472122666  1.0000
  C   C7        1.0  0.4099030261326986  0.34607255326205255  0.47933979115612374  1.0000
  C   C8        1.0  0.3218073565863797  0.3301704900931277  0.4840343410207537  1.0000
  C   C9        1.0  0.2665148310238837  0.45254527416802404  0.4484147216430203  1.0000
  N   N2        1.0  0.22207263984879802  0.550918799821339  0.41977971428851313  1.0000
  C   C10       1.0  0.2876035764291984  0.19517648821178948  0.5233863046490632  1.0000
  C   C11       1.0  0.34124288981855344  0.07650741322733157  0.5579232541824446  1.0000
  C   C12       1.0  0.42915593630488746  0.09197260911342696  0.5533562595668778  1.0000
  O   O1        1.0  0.5930251567610793  0.3708694089726172  0.4721354017098987  1.0000
  H   H1        1.0  0.7589855783145187  0.16254243670062407  0.5323956008454609  1.0000
  H   H2        1.0  0.6119930493400361  0.02870816168102053  0.57134910096172  1.0000
  H   H3        1.0  0.43577785061610047  0.45112177820998195  0.4487117456886416  1.0000
  H   H4        1.0  0.21958113261936513  0.18170824688902976  0.5273599887568863  1.0000
  H   H5        1.0  0.3146327562748291  0.972176363328966  0.5883423805478354  1.0000
  H   H6        1.0  0.4688959748138096  0.9979784231347822  0.5807211116556394  1.0000
  C   C13       1.0  0.0049810464040773664  0.1298592940790575  0.41758716834979914  1.0000
  C   C14       1.0  0.9847275709677754  0.21223871576391184  0.2887861328188388  1.0000
  C   C15       1.0  0.9572856306741501  0.14675939038116792  0.16561571459029478  1.0000
  C   C16       1.0  0.9499387787519078  0.9959049555405091  0.17078295994486226  1.0000
  C   C17       1.0  0.9710689567942824  0.9122967994993528  0.29681452263363073  1.0000
  C   C18       1.0  1.5640678298734647e-05  0.9768531419419644  0.4205281761278148  1.0000
  O   O2        1.0  0.9375610650574785  0.23533652155194032  0.04105371070019915  1.0000
  C   C19       1.0  0.9087996031096232  0.18358960290655318  0.9083226959805457  1.0000
  H   H7        1.0  0.013165743746836652  0.20950739841335797  0.7722921258077264  1.0000
  H   H8        1.0  0.9882910261950947  0.3290378478571588  0.28452593707399676  1.0000
  H   H9        1.0  0.9286860039267557  0.9419016693106402  0.0774985817982008  1.0000
  H   H10       1.0  0.9666639284300206  0.7958732563569367  0.2963199939604275  1.0000
  H   H11       1.0  0.009075353688903881  0.6798704771028495  0.6584487637301815  1.0000
  H   H12       1.0  0.8480519584539447  0.12628449337410436  0.9247317311737624  1.0000
  H   H13       1.0  0.9572925918060375  0.11006958987095361  0.8652666418740328  1.0000
  H   H14       1.0  0.8982055219099961  0.2767066248404424  0.8286042018328166  1.0000
  C   C20       1.0  0.0009671076700710181  0.5497281733933013  0.9958086283241809  1.0000
  C   C21       1.0  0.9342645314408228  0.6207370391867488  0.06364764183985616  1.0000
  C   C22       1.0  0.8731816150365984  0.7012674095935952  0.9824391201586399  1.0000
  C   C23       1.0  0.8776673707579042  0.7124736176252824  0.8319115058996287  1.0000
  C   C24       1.0  0.9426692470381666  0.6407088765347343  0.762355781517381  1.0000
  C   C25       1.0  0.004029580962690456  0.5569842198229611  0.8423066675690158  1.0000
  C   C26       1.0  0.8148517978991523  0.7963923440408349  0.7483963839693444  1.0000
  C   C27       1.0  0.7622550504457247  0.8666627869771829  0.6784372337791935  1.0000
  C   C28       1.0  0.6984383508764188  0.9519240818697349  0.5935421590510117  1.0000
  H   H15       1.0  0.19833670242760473  0.4311839809385134  0.10901478846598599  1.0000
  H   H16       1.0  0.9304809054961457  0.6167816935944674  0.18041267233574354  1.0000
  H   H17       1.0  0.8228578811673367  0.7560289227161362  0.03727451634796818  1.0000
  H   H18       1.0  0.9441951803679237  0.6474729572537288  0.6452382256413935  1.0000
  H   H19       1.0  0.1357567593827187  0.4720073928790349  0.5688695485190136  1.0000
  H   H20       1.0  0.7156337060385414  0.9558761044760042  0.47761466945178777  1.0000
  H   H21       1.0  0.6356274174418153  0.9012710100547522  0.6081808034807907  1.0000
  H   H22       1.0  0.6956409635061398  0.06330633523784136  0.6304264408565299  1.0000
  Zn  Zn1       1.0  0.9096470771208129  0.5543909521453887  0.4187518161609134  1.0000
  Zn  Zn2       1.0  0.09534151674341973  0.5523208758366018  0.41936283183680634  1.0000
  C   C29       1.0  0.003482510978048303  0.5498674627152755  0.6822804924075407  1.0000
  C   C30       1.0  0.0015081005080099762  0.5568461635280701  0.15583431004501902  1.0000
  C   C31       1.0  0.0009290825175412011  0.8167040919908999  0.4142287603935154  1.0000
  C   C32       1.0  0.004061476039615153  0.29000780293304085  0.4238861126762634  1.0000
  O   O3        1.0  0.07215977161271686  0.5584431511787878  0.20977224610131473  1.0000
  O   O4        1.0  0.07376862774703685  0.5466982435259902  0.6288058844335601  1.0000
  O   O5        1.0  0.07170575742433954  0.7621722197123175  0.4123522164027349  1.0000
  O   O6        1.0  0.0742225781190291  0.34296918508909446  0.42622580589157133  1.0000
  O   O7        1.0  0.9307659523767684  0.7637426436008159  0.41188884189006325  1.0000
  O   O8        1.0  0.9328288122599326  0.548270399441814  0.6283424390875842  1.0000
  O   O9        1.0  0.9312199502073649  0.5600152419842062  0.20930706771471222  1.0000
  O   O10       1.0  0.9332827571616267  0.34454126650579897  0.42576073552945215  1.0000
