data_image0
_chemical_formula_structural       NC5NC3BrH3C9H8C7F3H5Zn2C4O8
_chemical_formula_sum              "N2 C28 Br1 H16 F3 Zn2 O8"
_cell_length_a       13.839083392302014
_cell_length_b       9.275152443626249
_cell_length_c       10.299327507215196
_cell_angle_alpha    85.35552067985554
_cell_angle_beta     89.98220145889688
_cell_angle_gamma    90.59950914120974

_space_group_name_H-M_alt    "P 1"
_space_group_IT_number       1

loop_
  _space_group_symop_operation_xyz
  'x, y, z'

loop_
  _atom_site_type_symbol
  _atom_site_label
  _atom_site_symmetry_multiplicity
  _atom_site_fract_x
  _atom_site_fract_y
  _atom_site_fract_z
  _atom_site_occupancy
  N   N1        1.0  0.9208477928444837  0.5796390484917588  0.5625135789997391  1.0000
  C   C1        1.0  0.8484173689051876  0.5159686870171432  0.5649317795548958  1.0000
  C   C2        1.0  0.7581756415937473  0.43674074338785696  0.5679407150433582  1.0000
  C   C3        1.0  0.6711314046650718  0.51297522732242  0.565045640769851  1.0000
  C   C4        1.0  0.5825823724690549  0.4382141326834388  0.5678847076906794  1.0000
  C   C5        1.0  0.4933515214817901  0.5168010767954891  0.5649001516659498  1.0000
  N   N2        1.0  0.42162152343723236  0.5799788189570729  0.5625006250584588  1.0000
  C   C6        1.0  0.5810096501642945  0.2869069102634816  0.5736307270876648  1.0000
  C   C7        1.0  0.66760802602683  0.21055110377714328  0.5765303264086845  1.0000
  C   C8        1.0  0.756348285337818  0.2845977507969748  0.5737184094154679  1.0000
  Br  Br1       1.0  0.8730110847638848  0.17445755199642554  0.5779011563441523  1.0000
  H   H1        1.0  0.6722950409272378  0.6302255190461565  0.5605927823697432  1.0000
  H   H2        1.0  0.5129195120601268  0.2280276651101514  0.5758664749062832  1.0000
  H   H3        1.0  0.6656828681512859  0.09355013133482236  0.5809733767027487  1.0000
  C   C9        1.0  0.16838846545894537  0.15617449189064558  0.5638331162613825  1.0000
  C   C10       1.0  0.13355740737292576  0.23890721020113784  0.45349841653159784  1.0000
  C   C11       1.0  0.10770889413551132  0.17346559412206153  0.34109772720822407  1.0000
  C   C12       1.0  0.11628568107674409  0.024130132953968483  0.3368062344015923  1.0000
  C   C13       1.0  0.14922741279343388  0.9397081292678543  0.44620850415625624  1.0000
  C   C14       1.0  0.17409002502007964  0.0034322843365057793  0.5611923450006364  1.0000
  C   C15       1.0  0.09013460222588576  0.9569807625264647  0.22040823562849174  1.0000
  C   C16       1.0  0.0682391867655252  0.9007255256014285  0.12294316151615002  1.0000
  C   C17       1.0  0.04167342858626277  0.8324577465229498  0.0046863875150711136  1.0000
  H   H4        1.0  0.3071719679174709  0.2378802517573664  0.8232060233339143  1.0000
  H   H5        1.0  0.1284674218026185  0.3554213057010758  0.4530900213414144  1.0000
  H   H6        1.0  0.08189438967385954  0.2397007661570767  0.25698444564271017  1.0000
  H   H7        1.0  0.1532966749236515  0.8234014166205662  0.4425853536143658  1.0000
  H   H8        1.0  0.2644305220258365  0.7081669232895133  0.7385948235371851  1.0000
  H   H9        1.0  0.059335171840361856  0.7157460359581203  0.01681909669287251  1.0000
  H   H10       1.0  0.9630307847049892  0.8449896889277787  0.9869085619359831  1.0000
  H   H11       1.0  0.08250079519199002  0.8848468925231823  0.9206188092373665  1.0000
  C   C18       1.0  0.17133216954847819  0.5798620293032499  0.18113098043245213  1.0000
  C   C19       1.0  0.265622757883468  0.6377693299473077  0.17567779661507488  1.0000
  C   C20       1.0  0.3124995315851118  0.6694293900438564  0.055623018568490716  1.0000
  C   C21       1.0  0.265378750623378  0.6376161871969075  0.9404408220336578  1.0000
  C   C22       1.0  0.17114634425662079  0.5797447364183963  0.943894526694934  1.0000
  C   C23       1.0  0.12452963006721052  0.5517379868624281  0.06471047919560902  1.0000
  C   C24       1.0  0.41501409430540526  0.7267050593084292  0.05117974559434834  1.0000
  F   F1        1.0  0.43245967308952166  0.8109599134484962  0.15380790239461528  1.0000
  F   F2        1.0  0.47806669742890745  0.6117288100822305  0.05940554899745343  1.0000
  F   F3        1.0  0.43219408563125644  0.8109401604642249  0.9361645665867839  1.0000
  H   H12       1.0  0.9940340472037331  0.46817270783690984  0.39883537188291607  1.0000
  H   H13       1.0  0.30281567626028316  0.6580846677470336  0.26501012959107606  1.0000
  H   H14       1.0  0.3024042749437881  0.6578225994352487  0.8479969355498764  1.0000
  H   H15       1.0  0.05185461894549115  0.507109170033599  0.06810856201418258  1.0000
  H   H16       1.0  0.13553327162288653  0.5551285156161485  0.6179405617403502  1.0000
  Zn  Zn1       1.0  0.06536024928040907  0.5797332299231868  0.5625173585334424  1.0000
  Zn  Zn2       1.0  0.27710897697490977  0.5798728116248788  0.5625075406421156  1.0000
  C   C25       1.0  0.17114061257261648  0.5740198305829467  0.7997337852060007  1.0000
  C   C26       1.0  0.17133093819019196  0.5855880326906229  0.3252912356598159  1.0000
  C   C27       1.0  0.1730085899665006  0.8432832909529003  0.5565161874567559  1.0000
  C   C28       1.0  0.16946287686080397  0.31632283903805525  0.5685089080554993  1.0000
  O   O1        1.0  0.2516880212047823  0.5875564086118217  0.3736690280118169  1.0000
  O   O2        1.0  0.2514959071135716  0.5721563057001178  0.7513481708350438  1.0000
  O   O3        1.0  0.2530032388958272  0.789589954328312  0.5549482352226589  1.0000
  O   O4        1.0  0.25018061726020346  0.37012277027079254  0.570068866217438  1.0000
  O   O5        1.0  0.09228853673567894  0.7894832712312121  0.5549560329546341  1.0000
  O   O6        1.0  0.09078121662949057  0.5720513558395708  0.7513558939170943  1.0000
  O   O7        1.0  0.09097333082713566  0.5874514087199836  0.37367518979724745  1.0000
  O   O8        1.0  0.08946592678544407  0.3700177600457279  0.5700751254061467  1.0000
