data_image0
_chemical_formula_structural       NC5OC5NC4H8C6NH7C7ONH5Zn2C4O8
_chemical_formula_sum              "N4 C31 O10 H20 Zn2"
_cell_length_a       19.189071930511275
_cell_length_b       9.274771166103582
_cell_length_c       9.273042158839656
_cell_angle_alpha    86.05644510922068
_cell_angle_beta     90.07135709723086
_cell_angle_gamma    90.58817672672019

_space_group_name_H-M_alt    "P 1"
_space_group_IT_number       1

loop_
  _space_group_symop_operation_xyz
  'x, y, z'

loop_
  _atom_site_type_symbol
  _atom_site_label
  _atom_site_symmetry_multiplicity
  _atom_site_fract_x
  _atom_site_fract_y
  _atom_site_fract_z
  _atom_site_occupancy
  N   N1        1.0  0.6628282545409457  0.5617072256685862  0.40675151890936645  1.0000
  C   C1        1.0  0.6086121924234085  0.6127169766450984  0.3863569567499747  1.0000
  C   C2        1.0  0.5411743930965556  0.6761646031456385  0.3609891877340776  1.0000
  C   C3        1.0  0.5319261481525707  0.7826329118945994  0.24823469096695194  1.0000
  C   C4        1.0  0.46641812953277245  0.8443467636503652  0.22373240649123005  1.0000
  C   C5        1.0  0.4094977388921471  0.7994614664299324  0.31048067963934733  1.0000
  O   O1        1.0  0.3448369387900184  0.8651824627282791  0.28345731567705545  1.0000
  C   C6        1.0  0.2795551163387399  0.7992443342549373  0.3098548823111098  1.0000
  C   C7        1.0  0.22325470747839246  0.8857765624745246  0.34328046352377206  1.0000
  C   C8        1.0  0.1571660168492869  0.8243897289783066  0.3687262723753195  1.0000
  C   C9        1.0  0.1467138231038184  0.6756554908995851  0.35952051030245413  1.0000
  C   C10       1.0  0.07867840027421691  0.6124364684513901  0.385547652669185  1.0000
  N   N2        1.0  0.0239819213180567  0.5616105757793302  0.4064728052793014  1.0000
  C   C11       1.0  0.2025374819975555  0.5887584463355995  0.3239675501982324  1.0000
  C   C12       1.0  0.2686175738938541  0.6501895969506519  0.2985700896377337  1.0000
  C   C13       1.0  0.41923470640856214  0.6940146355459043  0.42502949336937434  1.0000
  C   C14       1.0  0.48473384613867065  0.632296942356132  0.44959990641726333  1.0000
  H   H1        1.0  0.5752988124445758  0.8180210270687334  0.17947875027920857  1.0000
  H   H2        1.0  0.4597296143106073  0.9267747678855839  0.136490553919415  1.0000
  H   H3        1.0  0.2308751329006721  0.0008946760405041926  0.35036798971460703  1.0000
  H   H4        1.0  0.1142830705336817  0.8928328912611189  0.39535282618486645  1.0000
  H   H5        1.0  0.19490992631543724  0.47379203518456947  0.31513186711566643  1.0000
  H   H6        1.0  0.3107894008144447  0.5819383395915103  0.2681543972627811  1.0000
  H   H7        1.0  0.3765854592259363  0.6610735852323095  0.4965037091811552  1.0000
  H   H8        1.0  0.49143578655045655  0.5510455356020534  0.5380510017920623  1.0000
  C   C15       1.0  0.8412696084769876  0.1380712148580849  0.40739942287601627  1.0000
  C   C16       1.0  0.8251253178769462  0.2200267051673663  0.2785194070448127  1.0000
  C   C17       1.0  0.8154868089788946  0.15361370479057546  0.1488166032887117  1.0000
  C   C18       1.0  0.8220283351730943  0.0038578360764369695  0.1470542843718654  1.0000
  C   C19       1.0  0.8368824953436943  0.9205646136111773  0.27416469013544575  1.0000
  C   C20       1.0  0.8455472223179574  0.9852356918434821  0.4058373944265814  1.0000
  N   N3        1.0  0.7997694843986269  0.23865365827792062  0.018519654939353154  1.0000
  H   H9        1.0  0.9199622248715467  0.22103289550176286  0.7227782313881621  1.0000
  H   H10       1.0  0.8216111165851624  0.3366145218240799  0.27796846300545175  1.0000
  H   H11       1.0  0.8149423034080606  0.9513213612429503  0.04726080807510735  1.0000
  H   H12       1.0  0.8399501627275666  0.8043562998884248  0.2700344168362465  1.0000
  H   H13       1.0  0.8957271712570011  0.6904163750300102  0.6204092419766087  1.0000
  H   H14       1.0  0.7949680539107615  0.3507283508046093  0.018476546412123703  1.0000
  H   H15       1.0  0.7927510496737331  0.19015933909982283  0.921096470162775  1.0000
  C   C21       1.0  0.8430526658244156  0.5571955198269882  0.9833619654478524  1.0000
  C   C22       1.0  0.7790926493672881  0.5663980212247186  0.05607523622420984  1.0000
  C   C23       1.0  0.7164615169618068  0.5895525767037364  0.9798248402896954  1.0000
  C   C24       1.0  0.7181679535130097  0.6017622483879315  0.8283023566044303  1.0000
  C   C25       1.0  0.780976441144581  0.590442236936255  0.7545844406471209  1.0000
  C   C26       1.0  0.8437641753693165  0.5661113111785627  0.8298748498613526  1.0000
  C   C27       1.0  0.6499194938434565  0.5995282662897492  0.05971789543749862  1.0000
  O   O2        1.0  0.644981999769122  0.5437094826987388  0.1871950353590326  1.0000
  N   N4        1.0  0.5910121090940746  0.6727235071560882  0.9960922496998208  1.0000
  H   H16       1.0  0.012406728820284487  0.6122477035718186  0.08308993657836017  1.0000
  H   H17       1.0  0.6708504833650697  0.6160369027806756  0.7656895016275684  1.0000
  H   H18       1.0  0.9578803630650085  0.5964990102675716  0.5468090229310207  1.0000
  H   H19       1.0  0.5946826864682888  0.7350115528906718  0.8983089784991257  1.0000
  H   H20       1.0  0.5439098267452201  0.6725737501093012  0.052371363254014584  1.0000
  Zn  Zn1       1.0  0.7670493977642957  0.5616755741213233  0.40667941242003347  1.0000
  Zn  Zn2       1.0  0.9197607460189021  0.5616305954815721  0.40655671808398464  1.0000
  C   C28       1.0  0.8435990966590445  0.5586796439118291  0.6698763620426678  1.0000
  C   C29       1.0  0.8432127240360928  0.5646283467102859  0.143359905232336  1.0000
  C   C30       1.0  0.8447302392899555  0.8250430487323599  0.40038904426680655  1.0000
  C   C31       1.0  0.8420815206094207  0.2982632096810176  0.41284730308897855  1.0000
  O   O3        1.0  0.9012195700596711  0.5670995091942059  0.19701012516551697  1.0000
  O   O4        1.0  0.9014966246173424  0.5561732511299471  0.6161326070465665  1.0000
  O   O5        1.0  0.9024092566203733  0.7712650851625764  0.3985196891372451  1.0000
  O   O6        1.0  0.900306885907872  0.3520076843573705  0.41462293502790093  1.0000
  O   O7        1.0  0.7865032057624392  0.7712984852623646  0.3986131955104022  1.0000
  O   O8        1.0  0.7855905824422826  0.5562083834553131  0.6162260333732281  1.0000
  O   O9        1.0  0.7853135262206624  0.5671345730020074  0.1971018186882756  1.0000
  O   O10       1.0  0.7844008421047447  0.3520427389862182  0.41471473663188196  1.0000
