data_image0
_chemical_formula_structural       NC9NC3OH6C8H6C6NCOCH7Zn2C4O8
_chemical_formula_sum              "N3 C32 O10 H19 Zn2"
_cell_length_a       15.78231758774541
_cell_length_b       9.27514070457351
_cell_length_c       10.300272075376752
_cell_angle_alpha    85.67809769676893
_cell_angle_beta     90.08212328067073
_cell_angle_gamma    90.22379856908987

_space_group_name_H-M_alt    "P 1"
_space_group_IT_number       1

loop_
  _space_group_symop_operation_xyz
  'x, y, z'

loop_
  _atom_site_type_symbol
  _atom_site_label
  _atom_site_symmetry_multiplicity
  _atom_site_fract_x
  _atom_site_fract_y
  _atom_site_fract_z
  _atom_site_occupancy
  N   N1        1.0  0.8074254626967372  0.5696218678113727  0.5733953957418927  1.0000
  C   C1        1.0  0.7583400725512468  0.47850227849047233  0.597275651169554  1.0000
  C   C2        1.0  0.6973988999294057  0.36540071939066765  0.6269172031244888  1.0000
  C   C3        1.0  0.7161987018277799  0.22332696561132995  0.6640723629122163  1.0000
  C   C4        1.0  0.6390499809055871  0.1544724343138839  0.682153755599614  1.0000
  C   C5        1.0  0.5779078873740956  0.25962325646630524  0.6546959633827383  1.0000
  C   C6        1.0  0.4846988445019008  0.24018244132097588  0.6598642516109305  1.0000
  C   C7        1.0  0.431677632687525  0.35938414132647745  0.6285723781078358  1.0000
  C   C8        1.0  0.34337433924892785  0.3434431362418303  0.6328174109249542  1.0000
  C   C9        1.0  0.28967769215049616  0.46611307470902585  0.6006068380712102  1.0000
  N   N2        1.0  0.2465183865603016  0.5647238791563767  0.5747124057424142  1.0000
  C   C10       1.0  0.3074098929547774  0.20812301536400618  0.6684029226086676  1.0000
  C   C11       1.0  0.3595016688362005  0.08916775985072102  0.6996344579427395  1.0000
  C   C12       1.0  0.44761664058641315  0.10467084044351972  0.6955047711486831  1.0000
  O   O1        1.0  0.6151230874002955  0.3842406863443058  0.6220574557834434  1.0000
  H   H1        1.0  0.7783681472641685  0.1754146185242991  0.6765515683177856  1.0000
  H   H2        1.0  0.6296303037465969  0.04125756464758634  0.7117769515655357  1.0000
  H   H3        1.0  0.4589225866720719  0.46468719140866566  0.6008758188068177  1.0000
  H   H4        1.0  0.2392116110637196  0.1946218132693608  0.671996122320371  1.0000
  H   H5        1.0  0.33153077099816936  0.9845846159061437  0.7271420927669476  1.0000
  H   H6        1.0  0.4861308871123118  0.010449897683457731  0.7202505960923115  1.0000
  C   C13       1.0  0.024402212763297  0.14376110984295834  0.573138011897937  1.0000
  C   C14       1.0  0.03650313471267608  0.22710762693590048  0.4547149722893131  1.0000
  C   C15       1.0  0.05599272906096586  0.1616136841037177  0.34096843908206437  1.0000
  C   C16       1.0  0.06384762592969911  0.011595323076436523  0.34346074509937363  1.0000
  C   C17       1.0  0.05066163511405741  0.9266807825148066  0.45975222418272355  1.0000
  C   C18       1.0  0.029549631927455064  0.9905734694205349  0.5749810353638245  1.0000
  C   C19       1.0  0.08449323090215083  0.9443388029296895  0.22608783882383188  1.0000
  C   C20       1.0  0.10177947162285723  0.8880129755607354  0.12782154919699182  1.0000
  H   H7        1.0  0.038253408171886584  0.22000519475074043  0.892265217750557  1.0000
  H   H8        1.0  0.032859998460629924  0.3439744691401394  0.4507264498035415  1.0000
  H   H9        1.0  0.06576579127439047  0.22827562075624241  0.25122313890251746  1.0000
  H   H10       1.0  0.054932695048538455  0.8100259620184368  0.4596046150408091  1.0000
  H   H11       1.0  0.03562366185521768  0.6919075506169634  0.7899862641082801  1.0000
  H   H12       1.0  0.11695308092110986  0.8385690343043287  0.041564382871565726  1.0000
  C   C21       1.0  0.026983773286577837  0.5673136362302851  0.1927071156052562  1.0000
  C   C22       1.0  0.94047911712692  0.6023892922580614  0.18908220525550457  1.0000
  C   C23       1.0  0.8971568074508378  0.6220090081284346  0.06984602386209059  1.0000
  C   C24       1.0  0.9404856827364577  0.6020604654546875  0.9539475565619044  1.0000
  C   C25       1.0  0.026968117807264488  0.5670208919224861  0.9554119305984674  1.0000
  C   C26       1.0  0.06983585742869097  0.5503690415189846  0.07529584756818553  1.0000
  N   N3        1.0  0.8082798643137997  0.6557009522962927  0.0646683616056387  1.0000
  C   C27       1.0  0.7667662376332984  0.7459265621963345  0.15218948856420922  1.0000
  O   O2        1.0  0.8092900258159221  0.8225750092593445  0.2247462483157765  1.0000
  C   C28       1.0  0.6723839742618051  0.7575850543897925  0.15081685997015315  1.0000
  H   H13       1.0  0.906425571915752  0.6116238177221185  0.279142314428962  1.0000
  H   H14       1.0  0.9063940273674287  0.6152509248909142  0.862503696185421  1.0000
  H   H15       1.0  0.13655965826338054  0.5233552327661115  0.07728013192336092  1.0000
  H   H16       1.0  0.7726620044447718  0.6201383539291936  0.9875271425078064  1.0000
  H   H17       1.0  0.6435951543237394  0.6501461023735959  0.13812219519405633  1.0000
  H   H18       1.0  0.6494035425660367  0.7963575813792104  0.24387614191737939  1.0000
  H   H19       1.0  0.6524957514425064  0.8348714854965205  0.0690610608035136  1.0000
  Zn  Zn1       1.0  0.934138168384231  0.5682045598092224  0.5737829411387789  1.0000
  Zn  Zn2       1.0  0.11980558062900942  0.566129415109188  0.5743354505930285  1.0000
  C   C29       1.0  0.026934249208769186  0.56133225367115  0.8112318562888519  1.0000
  C   C30       1.0  0.02701153834281132  0.5730035178018293  0.33688667289669083  1.0000
  C   C31       1.0  0.02857242241608882  0.8305099411025656  0.5694576776654472  1.0000
  C   C32       1.0  0.02537329124870545  0.30382409873875976  0.5786609167970111  1.0000
  O   O3        1.0  0.09748063364583465  0.5741192970928932  0.38548431018846174  1.0000
  O   O4        1.0  0.09738241714385863  0.5586403999829004  0.7630531846915025  1.0000
  O   O5        1.0  0.0987043128665217  0.7760047968980167  0.5678188252970084  1.0000
  O   O6        1.0  0.09615867463215988  0.3567549112376432  0.5807185720464205  1.0000
  O   O7        1.0  0.957785011021915  0.7775790643904844  0.5673998194900154  1.0000
  O   O8        1.0  0.9564631258268717  0.560216399816739  0.762634113412223  1.0000
  O   O9        1.0  0.9565613421118788  0.5756952472802124  0.3850636774669596  1.0000
  O   O10       1.0  0.9552393830300495  0.3583308510748131  0.5802980366660822  1.0000
