data_image0
_chemical_formula_structural       NC5OC5NC4H8C9H10C6NH7Zn2C4O8
_chemical_formula_sum              "N3 C33 O9 H25 Zn2"
_cell_length_a       19.189071930511275
_cell_length_b       10.297183801781406
_cell_length_c       9.274774538082513
_cell_angle_alpha    85.03689992379437
_cell_angle_beta     90.32765294797488
_cell_angle_gamma    89.98878219536965

_space_group_name_H-M_alt    "P 1"
_space_group_IT_number       1

loop_
  _space_group_symop_operation_xyz
  'x, y, z'

loop_
  _atom_site_type_symbol
  _atom_site_label
  _atom_site_symmetry_multiplicity
  _atom_site_fract_x
  _atom_site_fract_y
  _atom_site_fract_z
  _atom_site_occupancy
  N   N1        1.0  0.6514842562695974  0.43402132397445015  0.40681664504283505  1.0000
  C   C1        1.0  0.5969662619511786  0.4803119013446692  0.3864656682982128  1.0000
  C   C2        1.0  0.529152908577676  0.5378896683846703  0.36115211183519946  1.0000
  C   C3        1.0  0.519122329450634  0.6357247773244397  0.24839663663278969  1.0000
  C   C4        1.0  0.45324939264404834  0.6917261832216115  0.2239473089989721  1.0000
  C   C5        1.0  0.3967438191223031  0.6498007232327125  0.31074736680463655  1.0000
  O   O1        1.0  0.33169239018392543  0.7094544828437694  0.2837791796890383  1.0000
  C   C6        1.0  0.26680093714112535  0.649616032612389  0.31012045036634206  1.0000
  C   C7        1.0  0.21013578076906533  0.7269635062420406  0.34370908475749395  1.0000
  C   C8        1.0  0.14441240126518445  0.6712402413006966  0.3691036235771022  1.0000
  C   C9        1.0  0.1346917273463885  0.5374566458513995  0.35968080862747986  1.0000
  C   C10       1.0  0.0670321328094528  0.48007331841327855  0.38565491734993995  1.0000
  N   N2        1.0  0.012637807226248502  0.43393911722312034  0.40653743306653845  1.0000
  C   C11       1.0  0.19087736566037353  0.459817514908917  0.32396150548858693  1.0000
  C   C12       1.0  0.2565920273207306  0.5155798516523626  0.2986154393803848  1.0000
  C   C13       1.0  0.4072618492090824  0.5528544044672907  0.4253009175282505  1.0000
  C   C14       1.0  0.4731260742103717  0.49684835810110334  0.4498184576940725  1.0000
  H   H1        1.0  0.5621671610181554  0.6687856057119688  0.17959939332468777  1.0000
  H   H2        1.0  0.4459553072735549  0.7674694271169771  0.1367047682665763  1.0000
  H   H3        1.0  0.2171899391021804  0.8305106940088209  0.35096455742678906  1.0000
  H   H4        1.0  0.101241364186271  0.7324154032476264  0.3958593920518581  1.0000
  H   H5        1.0  0.18381152128663567  0.3564372487114984  0.3149557947752779  1.0000
  H   H6        1.0  0.2990427620643922  0.45464319747920157  0.26806583273561024  1.0000
  H   H7        1.0  0.3649339631868002  0.5219501666503654  0.4968233697944487  1.0000
  H   H8        1.0  0.4804302612132071  0.4221437405628914  0.5382734470835109  1.0000
  C   C15       1.0  0.8320674199549692  0.05250307351910565  0.40688152270082045  1.0000
  C   C16       1.0  0.8295877205846262  0.06355422660822341  0.25501132009137306  1.0000
  C   C17       1.0  0.8283171368922683  0.9525995681500273  0.17720377426451187  1.0000
  C   C18       1.0  0.8295778196278701  0.8283877506408368  0.2544226938983256  1.0000
  C   C19       1.0  0.8320613822877241  0.8154473101426074  0.40648498955929013  1.0000
  C   C20       1.0  0.8332893087316614  0.9279888856050428  0.4817217765596658  1.0000
  C   C21       1.0  0.8256349741170677  0.9739843654072257  0.012945426507019691  1.0000
  C   C22       1.0  0.7845925942731607  0.8759066262833488  0.9326359206294685  1.0000
  C   C23       1.0  0.8639714891813886  0.8762327210307091  0.9279897511265021  1.0000
  H   H9        1.0  0.8330295447310017  0.37578316224937747  0.4654019779124652  1.0000
  H   H10       1.0  0.8286305661575478  0.1592429467189227  0.1963810428528241  1.0000
  H   H11       1.0  0.8286455545421634  0.7412351327990281  0.19742056942174724  1.0000
  H   H12       1.0  0.8352020995821776  0.9187352461444673  0.5988928273083252  1.0000
  H   H13       1.0  0.8367428756967477  0.58379001394661  0.6936878559441726  1.0000
  H   H14       1.0  0.8247735196371581  0.07511402295038348  0.9601499054730228  1.0000
  H   H15       1.0  0.761532192825804  0.7917594646233771  0.9983336686001523  1.0000
  H   H16       1.0  0.7597058956244568  0.9175857652750984  0.8305436569490978  1.0000
  H   H17       1.0  0.8891295059516572  0.7922844382251606  0.9908659540453222  1.0000
  H   H18       1.0  0.8854782573655113  0.9181000911640307  0.8231806742151222  1.0000
  C   C24       1.0  0.8308137223645092  0.437298010501856  0.9828661966496135  1.0000
  C   C25       1.0  0.8801924099741639  0.5139467061815755  0.04952468532742649  1.0000
  C   C26       1.0  0.9326975790374166  0.5798938042983572  0.9686848917298425  1.0000
  C   C27       1.0  0.9362493074038974  0.5694912580475349  0.8197101362638914  1.0000
  C   C28       1.0  0.8870941758632711  0.49570420809690696  0.7513474249179262  1.0000
  C   C29       1.0  0.8333150615643693  0.43065233436849826  0.8305003425451252  1.0000
  N   N3        1.0  0.9828762866834874  0.6563615905427941  0.03834810090874785  1.0000
  H   H19       1.0  0.7266498128434365  0.18337850652866658  0.10899902720705736  1.0000
  H   H20       1.0  0.8789379502571311  0.520108073264321  0.16554258263608146  1.0000
  H   H21       1.0  0.9767872481330256  0.6196724681026196  0.7561219371370128  1.0000
  H   H22       1.0  0.8902017105906822  0.4920900159745151  0.635173850618961  1.0000
  H   H23       1.0  0.7610167380868785  0.2635838178349641  0.5645612978469088  1.0000
  H   H24       1.0  0.9808525693686055  0.6645084034816386  0.14971535476870712  1.0000
  H   H25       1.0  0.02240839028559605  0.7055214732093464  0.979049895049521  1.0000
  Zn  Zn1       1.0  0.7557054031129908  0.4339940700640299  0.40674440046415183  1.0000
  Zn  Zn2       1.0  0.9084167126679226  0.4339556913615305  0.40662148339630155  1.0000
  C   C30       1.0  0.8328407453013537  0.4267333914621713  0.6702820315683337  1.0000
  C   C31       1.0  0.8312830384873316  0.4412180075181543  0.143083991752103  1.0000
  C   C32       1.0  0.8320419551474451  0.6712796971088679  0.4008087768558176  1.0000
  C   C33       1.0  0.8320817767709834  0.19667014053604936  0.4125573242628997  1.0000
  O   O2        1.0  0.8893936914247635  0.4425133624600669  0.19680790395480008  1.0000
  O   O3        1.0  0.8906344415987095  0.42540793122991016  0.61646441320769  1.0000
  O   O4        1.0  0.8899886316396972  0.6228821541803942  0.398862853386192  1.0000
  O   O5        1.0  0.8900394489543432  0.2450391496639501  0.4144093556004842  1.0000
  O   O6        1.0  0.7740826147136723  0.6229106117761808  0.3989565282943225  1.0000
  O   O7        1.0  0.7747284244300442  0.4254379501756759  0.6165580103518927  1.0000
  O   O8        1.0  0.7734876691823008  0.44254334974131004  0.1968997659305427  1.0000
  O   O9        1.0  0.7741334270284155  0.24506912680539616  0.41450132578639476  1.0000
