data_image0
_chemical_formula_structural       NC9NC3OH6C10OC3H11C6OCH6Zn2C4O8
_chemical_formula_sum              "N2 C36 O11 H23 Zn2"
_cell_length_a       15.78231758774541
_cell_length_b       10.299147686265055
_cell_length_c       10.300312196595936
_cell_angle_alpha    85.53403072311261
_cell_angle_beta     90.08934895001595
_cell_angle_gamma    89.64431446373189

_space_group_name_H-M_alt    "P 1"
_space_group_IT_number       1

loop_
  _space_group_symop_operation_xyz
  'x, y, z'

loop_
  _atom_site_type_symbol
  _atom_site_label
  _atom_site_symmetry_multiplicity
  _atom_site_fract_x
  _atom_site_fract_y
  _atom_site_fract_z
  _atom_site_occupancy
  N   N1        1.0  0.7979748826979355  0.4134450317589329  0.5694121806729301  1.0000
  C   C1        1.0  0.7494333410662931  0.33137366962918546  0.5935253032432548  1.0000
  C   C2        1.0  0.6891672166736592  0.22950315996518864  0.6234558999163435  1.0000
  C   C3        1.0  0.7088149813142737  0.10153738666721535  0.6609741485720009  1.0000
  C   C4        1.0  0.6320772225423802  0.03952016076500752  0.6792315063450214  1.0000
  C   C5        1.0  0.5703075429723666  0.134229476994308  0.6515049857070428  1.0000
  C   C6        1.0  0.47721453881228976  0.11671916844825135  0.6567229552596623  1.0000
  C   C7        1.0  0.42348186581123826  0.2240840556578467  0.6251264488207584  1.0000
  C   C8        1.0  0.33527372193120086  0.20972602217840117  0.6294122189413749  1.0000
  C   C9        1.0  0.2808449126267583  0.32021474678898737  0.5968881499190063  1.0000
  N   N2        1.0  0.23709704297743198  0.40903342644062946  0.5707417071515667  1.0000
  C   C10       1.0  0.3001169454617371  0.08784330383972151  0.6653435542134581  1.0000
  C   C11       1.0  0.3529187119668363  0.9807003903515353  0.6968790925468145  1.0000
  C   C12       1.0  0.44094114796352174  0.9946639856684055  0.6927097876023381  1.0000
  O   O1        1.0  0.6067789638452892  0.2464723313875321  0.6185480026032675  1.0000
  H   H1        1.0  0.7712703859711165  0.05838273912856052  0.6735758019290041  1.0000
  H   H2        1.0  0.6233332660143648  0.9375475775481426  0.7091440379400195  1.0000
  H   H3        1.0  0.4500983090671883  0.3189304222844924  0.5971607775746699  1.0000
  H   H4        1.0  0.23199925012535402  0.0756827956991475  0.6689712563610012  1.0000
  H   H5        1.0  0.3255720280671709  0.8865024426941299  0.7246539995158485  1.0000
  H   H6        1.0  0.48001775775062006  0.9097992525102254  0.7176964041097371  1.0000
  C   C13       1.0  0.017484323504492583  0.02983805814817564  0.5702462365801229  1.0000
  C   C14       1.0  0.9942874539706535  0.03956391712219976  0.43816562260040465  1.0000
  C   C15       1.0  0.9825848067394228  0.927364891465622  0.37102768401903025  1.0000
  C   C16       1.0  0.9943890809217064  0.8043114379102081  0.4377541396256072  1.0000
  C   C17       1.0  0.01759568663806133  0.7926303891916727  0.5699188737510735  1.0000
  C   C18       1.0  0.02900228066787957  0.9059104978080063  0.6353509440066835  1.0000
  C   C19       1.0  0.9580469356388154  0.9386988927402224  0.23129633120313217  1.0000
  C   C20       1.0  0.8968876846694939  0.030647824679345126  0.18451105547506685  1.0000
  C   C21       1.0  0.8738501100030687  0.04114751300298813  0.053026034974113616  1.0000
  C   C22       1.0  0.9112388477290938  0.9605285337306282  0.9658032948782902  1.0000
  O   O2        1.0  0.8859247528299355  0.9749707770918459  0.834836026038563  1.0000
  C   C23       1.0  0.9185781435445717  0.8996834583058914  0.7357932798008874  1.0000
  C   C24       1.0  0.9725166064875411  0.8683599623860664  0.012061339869691377  1.0000
  C   C25       1.0  0.9955915374357032  0.8576569421360927  0.14357185073662368  1.0000
  H   H7        1.0  0.9863950416658648  0.13466303862497006  0.38672359181011573  1.0000
  H   H8        1.0  0.9843282266127431  0.7174721022605924  0.3869487344615872  1.0000
  H   H9        1.0  0.04689217988755987  0.8976928927133673  0.7372290862643647  1.0000
  H   H10       1.0  0.060875661993797764  0.5632787389874694  0.8195865702489582  1.0000
  H   H11       1.0  0.8660427217493806  0.0933234468366042  0.24992713313714288  1.0000
  H   H12       1.0  0.8264528070765529  0.1122164985626446  0.018720154181491637  1.0000
  H   H13       1.0  0.8875047804518756  0.9314450607754612  0.6418874750677199  1.0000
  H   H14       1.0  0.9049375261927245  0.7948874515436541  0.7596074312765739  1.0000
  H   H15       1.0  0.9879327947303221  0.9147072105918141  0.7254799657840261  1.0000
  H   H16       1.0  0.002843014341292083  0.8047672387120732  0.9472111353478176  1.0000
  H   H17       1.0  0.04366919954390222  0.7870539885507923  0.1763571035093627  1.0000
  C   C26       1.0  0.017516071865308444  0.41124864793393984  0.1887403693543841  1.0000
  C   C27       1.0  0.9345193665188861  0.4614933737745027  0.18357579003989308  1.0000
  C   C28       1.0  0.8927573040000832  0.48677547539948496  0.06339774127410647  1.0000
  C   C29       1.0  0.9346172920546433  0.46143418240288614  0.9484344389742291  1.0000
  C   C30       1.0  0.017563949666014697  0.4112197602106653  0.9514247753682015  1.0000
  C   C31       1.0  0.05858175912870544  0.386388164300146  0.0721216463289982  1.0000
  O   O3        1.0  0.8099124796602781  0.5369284802946774  0.053940839203894024  1.0000
  C   C32       1.0  0.7595841300358074  0.567396681602766  0.16222704912588834  1.0000
  H   H18       1.0  0.902656656965834  0.4807824735993216  0.2729943660857385  1.0000
  H   H19       1.0  0.9018018895126694  0.48130017905727945  0.8565382746238706  1.0000
  H   H20       1.0  0.12258075515324512  0.3476443572060767  0.0753004448225203  1.0000
  H   H21       1.0  0.7492823584278395  0.47851452998282124  0.22833823150827715  1.0000
  H   H22       1.0  0.6971430585473455  0.6051974036529203  0.12644019076092824  1.0000
  H   H23       1.0  0.7909832757522371  0.6435070913393481  0.2155914222440114  1.0000
  Zn  Zn1       1.0  0.9246960489125137  0.41216846820624403  0.5698033477256214  1.0000
  Zn  Zn2       1.0  0.1103758473888663  0.41029938922523423  0.5703611602232248  1.0000
  C   C33       1.0  0.01755224293750968  0.4060511177189994  0.8072632934774293  1.0000
  C   C34       1.0  0.017521681228742873  0.4164183580553839  0.3329013473169775  1.0000
  C   C35       1.0  0.017569949866117027  0.6484466034103881  0.5648059453380927  1.0000
  C   C36       1.0  0.01750391071713085  0.17402131256476006  0.5753587651693942  1.0000
  O   O4        1.0  0.0879880787984981  0.4174383880454441  0.381494777815393  1.0000
  O   O5        1.0  0.08801251590671971  0.4036115202387871  0.7590928563584226  1.0000
  O   O6        1.0  0.08802586466486972  0.5993489499545182  0.563306828876723  1.0000
  O   O7        1.0  0.08797466667565623  0.22170096826219887  0.5772807077349162  1.0000
  O   O8        1.0  0.9470971662623212  0.600766889808518  0.562883800016745  1.0000
  O   O9        1.0  0.9470838177237728  0.4050310205312614  0.7586697575881797  1.0000
  O   O10       1.0  0.9470593805673125  0.41885784313671426  0.3810701177734512  1.0000
  O   O11       1.0  0.9470459684457595  0.2231204140602225  0.5768561450579655  1.0000
