data_image0
_chemical_formula_structural       NC9NC3OH6C6NH7C7OH4Zn2C4O8
_chemical_formula_sum              "N3 C29 O10 H17 Zn2"
_cell_length_a       15.78231758774541
_cell_length_b       9.274771166103584
_cell_length_c       9.274081674992354
_cell_angle_alpha    85.96953540669611
_cell_angle_beta     89.75780300142802
_cell_angle_gamma    90.23039320205511

_space_group_name_H-M_alt    "P 1"
_space_group_IT_number       1

loop_
  _space_group_symop_operation_xyz
  'x, y, z'

loop_
  _atom_site_type_symbol
  _atom_site_label
  _atom_site_symmetry_multiplicity
  _atom_site_fract_x
  _atom_site_fract_y
  _atom_site_fract_z
  _atom_site_occupancy
  N   N1        1.0  0.8127819066967767  0.5553868226664724  0.4099843693556713  1.0000
  C   C1        1.0  0.7636017410216177  0.46448417421497507  0.436874653676153  1.0000
  C   C2        1.0  0.7025429276451203  0.3516518950890421  0.47025242163943703  1.0000
  C   C3        1.0  0.72119524505663  0.20991557926970605  0.5120921451224414  1.0000
  C   C4        1.0  0.6439747739404159  0.14122535446133266  0.5324520525823477  1.0000
  C   C5        1.0  0.5829416844011528  0.24612686073376744  0.5015316830422156  1.0000
  C   C6        1.0  0.48971215177706306  0.2267330891292898  0.5073502323492027  1.0000
  C   C7        1.0  0.4368151149535684  0.34565045193776545  0.4721149594239453  1.0000
  C   C8        1.0  0.3484949941456733  0.3297480954690179  0.4768939775676069  1.0000
  C   C9        1.0  0.29492616522010967  0.45212533853445364  0.44062436390611986  1.0000
  N   N2        1.0  0.2518696136725522  0.5505008403287028  0.41146684497782343  1.0000
  C   C10       1.0  0.3123893532217304  0.1947514046095093  0.5169629664650118  1.0000
  C   C11       1.0  0.3643571948596416  0.07607994348561697  0.552130227119983  1.0000
  C   C12       1.0  0.452488536369375  0.09154542405084173  0.5474810846745506  1.0000
  O   O1        1.0  0.6202864257870482  0.37044781117839864  0.4647788622341935  1.0000
  H   H1        1.0  0.7833151399393296  0.1621165025922837  0.5261455659997979  1.0000
  H   H2        1.0  0.6344375144211369  0.028279537666398007  0.5658099274351577  1.0000
  H   H3        1.0  0.4641699607137967  0.4507017672964815  0.4409289410469075  1.0000
  H   H4        1.0  0.2441768272085261  0.18128291393702642  0.5210081907656765  1.0000
  H   H5        1.0  0.3362771549694779  0.9717468176551931  0.5831035118125192  1.0000
  H   H6        1.0  0.4909045879876039  0.997549351735311  0.5753451877544982  1.0000
  C   C13       1.0  0.029726023325682846  0.12938323832590304  0.4115024527298534  1.0000
  C   C14       1.0  0.010657991727828877  0.21175266905936319  0.2825437511988267  1.0000
  C   C15       1.0  0.9995031893728605  0.14566860225054  0.15279398783880008  1.0000
  C   C16       1.0  0.007463958809415857  0.9958287093574792  0.1510635696404683  1.0000
  C   C17       1.0  0.024971154086809614  0.9121414005231367  0.2782463702965694  1.0000
  C   C18       1.0  0.034933484034555  0.9764934056003958  0.409961284832272  1.0000
  N   N3        1.0  0.9809604149789258  0.23111903049263913  0.022420436385532264  1.0000
  H   H7        1.0  0.1240292098419522  0.21081226953415924  0.7272649054472511  1.0000
  H   H8        1.0  0.006387860453293429  0.32838794685883155  0.28197567013609226  1.0000
  H   H9        1.0  0.9992824664642636  0.9435409417814328  0.05123557109368626  1.0000
  H   H10       1.0  0.028718735451472844  0.7958988059869652  0.2741310580293752  1.0000
  H   H11       1.0  0.09500932643463605  0.6806758876257764  0.6247777664416436  1.0000
  H   H12       1.0  0.9751230787039455  0.3432574685751128  0.02235391341809079  1.0000
  H   H13       1.0  0.9728508069319828  0.18286884694819291  0.9249630582113669  1.0000
  C   C19       1.0  0.033736373108079976  0.5491413629214866  0.9874738315361977  1.0000
  C   C20       1.0  0.1029319649293165  0.6111487158317552  0.0561180175379985  1.0000
  C   C21       1.0  0.1673949870441933  0.6838501690613008  0.9757176161342299  1.0000
  C   C22       1.0  0.16264763621390232  0.6949356182182527  0.8245585864580933  1.0000
  C   C23       1.0  0.09522240575378223  0.6320861005681294  0.754719063619798  1.0000
  C   C24       1.0  0.030923126465272722  0.556735231239134  0.8339898326068305  1.0000
  C   C25       1.0  0.23858377058507652  0.7487068108120241  0.05128209825515539  1.0000
  O   O2        1.0  0.2973047219299636  0.8152579296054817  0.9820169707058751  1.0000
  H   H14       1.0  0.8324167172734228  0.45767948652330065  0.09833533490965873  1.0000
  H   H15       1.0  0.21150685867320496  0.7510445267874981  0.7600114422636683  1.0000
  H   H16       1.0  0.8966827674080358  0.4892155218696401  0.5585792403525565  1.0000
  H   H17       1.0  0.240997400298126  0.7395097285251042  0.16821430947494975  1.0000
  Zn  Zn1       1.0  0.9394930791456775  0.5539730555549485  0.4104205033464938  1.0000
  Zn  Zn2       1.0  0.12515830120738802  0.5519029410236924  0.41104251480767906  1.0000
  C   C26       1.0  0.03141767220707225  0.5495538038733716  0.6739906644705453  1.0000
  C   C27       1.0  0.03323574632181492  0.5563239912724709  0.1474724986321272  1.0000
  C   C28       1.0  0.033963879722681306  0.8163200453148143  0.4045089524196648  1.0000
  C   C29       1.0  0.03068946454345566  0.2895560183044261  0.4169542904672872  1.0000
  O   O3        1.0  0.10352667688676154  0.557942656730039  0.20140557447169896  1.0000
  O   O4        1.0  0.10204234387607908  0.5463628775523419  0.6205292680084762  1.0000
  O   O5        1.0  0.10409748384462397  0.7617800152706242  0.4029208729888709  1.0000
  O   O6        1.0  0.10147147398583395  0.34252552906669664  0.4190138611900964  1.0000
  O   O7        1.0  0.9631798430088383  0.7633504682198755  0.40244915674423054  1.0000
  O   O8        1.0  0.96112471394465  0.5479350627361261  0.62005747175971  1.0000
  O   O9        1.0  0.9626090524617088  0.5595147761050281  0.20093204541149023  1.0000
  O   O10       1.0  0.9605538491347708  0.344097639094677  0.4185404402112498  1.0000
