data_image0
_chemical_formula_structural       NC9NC3SH6C8NH6C6NO2H3Zn2C4O8
_chemical_formula_sum              "N4 C30 S1 H15 O10 Zn2"
_cell_length_a       16.77567553997237
_cell_length_b       9.274263428431858
_cell_length_c       9.273395971720358
_cell_angle_alpha    84.92461197253164
_cell_angle_beta     90.29524247886945
_cell_angle_gamma    91.51050711931723

_space_group_name_H-M_alt    "P 1"
_space_group_IT_number       1

loop_
  _space_group_symop_operation_xyz
  'x, y, z'

loop_
  _atom_site_type_symbol
  _atom_site_label
  _atom_site_symmetry_multiplicity
  _atom_site_fract_x
  _atom_site_fract_y
  _atom_site_fract_z
  _atom_site_occupancy
  N   N1        1.0  0.7620225748377888  0.616097889471624  0.41441305552953356  1.0000
  C   C1        1.0  0.7075493838294101  0.6704142332709075  0.4606287990833575  1.0000
  C   C2        1.0  0.6399473367321219  0.7378172297578127  0.5179790005595575  1.0000
  C   C3        1.0  0.6425488877434815  0.8345750629262202  0.6235947165001731  1.0000
  C   C4        1.0  0.5671611123361048  0.8825043937401782  0.658599769625799  1.0000
  C   C5        1.0  0.5048863735703468  0.8232826091695852  0.580132940121656  1.0000
  C   C6        1.0  0.41855522072141865  0.8521121768123969  0.5921806816777406  1.0000
  C   C7        1.0  0.3612825503341442  0.7643728324078813  0.5274320387367302  1.0000
  C   C8        1.0  0.2797890640885005  0.7909812229396382  0.5383063469401135  1.0000
  C   C9        1.0  0.2218329426907666  0.7002935069307875  0.4720081106179048  1.0000
  N   N2        1.0  0.1752533117885657  0.6273935760306104  0.4187141243954682  1.0000
  C   C10       1.0  0.2547407018942385  0.9056791322222523  0.6137500143866648  1.0000
  C   C11       1.0  0.3109233471248262  0.9936002337955584  0.6779854357216716  1.0000
  C   C12       1.0  0.3922612239030143  0.967391966001694  0.6674384053520634  1.0000
  S   S1        1.0  0.5449189619381608  0.7110441862836532  0.46779290842547266  1.0000
  H   H1        1.0  0.6971065525243835  0.8694397456221428  0.6744547099260343  1.0000
  H   H2        1.0  0.5592555924449768  0.9570844842485248  0.7402486026921924  1.0000
  H   H3        1.0  0.3796052392894594  0.6746659745146085  0.46917407675338985  1.0000
  H   H4        1.0  0.19187564574851  0.9272023446974432  0.6227299787903875  1.0000
  H   H5        1.0  0.2914163421490382  0.0826314192903994  0.7358908229838985  1.0000
  H   H6        1.0  0.4340751037300771  0.038683117875287554  0.7171576963541975  1.0000
  C   C13       1.0  0.9661181906274808  0.19809021151598946  0.41684417155056847  1.0000
  C   C14       1.0  0.9559628390104745  0.2825524960160073  0.28480126943104334  1.0000
  C   C15       1.0  0.9536267782059188  0.21894497719181727  0.15403407864804053  1.0000
  C   C16       1.0  0.9620364541038244  0.0694143621123191  0.15208203856069624  1.0000
  C   C17       1.0  0.9700529139844459  0.9833982650325106  0.2832177273364094  1.0000
  C   C18       1.0  0.9711652508910614  0.04539030042609693  0.41629563503052047  1.0000
  C   C19       1.0  0.9583280946401554  0.0007986362030258929  0.011186709632638573  1.0000
  C   C20       1.0  0.8756340518688315  0.9599374720883449  0.9782408225110567  1.0000
  N   N3        1.0  0.8103653963252277  0.9276851804005203  0.9522468828370005  1.0000
  H   H7        1.0  0.03454771556162651  0.27474577726616367  0.7503923503372683  1.0000
  H   H8        1.0  0.9515577278856058  0.3990757153531068  0.2823909697873732  1.0000
  H   H9        1.0  0.9460029273585471  0.28671101956471334  0.053908115961740735  1.0000
  H   H10       1.0  0.014131195669737197  0.7467052653824572  0.6427875725294843  1.0000
  H   H11       1.0  0.9951608898325669  0.9026317409451872  0.01715688880483546  1.0000
  H   H12       1.0  0.9819783427542607  0.07719790283702553  0.9215923204772407  1.0000
  C   C21       1.0  0.9691218709780349  0.6261846490101599  0.9926350330235639  1.0000
  C   C22       1.0  0.8982506350263294  0.6571709862002164  0.062460708873335324  1.0000
  C   C23       1.0  0.8270749541602238  0.6745098064856212  0.9852767708117227  1.0000
  C   C24       1.0  0.8247503180658208  0.661194406777502  0.8359673397101375  1.0000
  C   C25       1.0  0.8955936691279651  0.632678923767198  0.7647019419518797  1.0000
  C   C26       1.0  0.9681615438960373  0.6172958137842578  0.8405047749535317  1.0000
  N   N4        1.0  0.7509443856697554  0.67798062409412  0.7570482812956665  1.0000
  O   O1        1.0  0.6818357004528464  0.7070912168429464  0.8270815616249947  1.0000
  O   O2        1.0  0.7483342143158167  0.666021876015626  0.6240340059135967  1.0000
  H   H13       1.0  0.14263526170131047  0.4693316326443731  0.11097765934607584  1.0000
  H   H14       1.0  0.7735552922426966  0.6969652007717995  0.043085723205943414  1.0000
  H   H15       1.0  0.08650012179003941  0.5159522489608745  0.5703614318702548  1.0000
  Zn  Zn1       1.0  0.8812720097244224  0.6193536413091963  0.4156625991114067  1.0000
  Zn  Zn2       1.0  0.05600378840521314  0.6241259308370075  0.41747644391943695  1.0000
  C   C27       1.0  0.9683070686616478  0.613228606851444  0.6802429227349025  1.0000
  C   C28       1.0  0.9689706482160225  0.6302528362342685  0.15289628061800387  1.0000
  C   C29       1.0  0.9702136561204704  0.8852927102301058  0.4106464694326397  1.0000
  C   C30       1.0  0.9670639907215882  0.3581869971094207  0.4224928113901054  1.0000
  O   O3        1.0  0.035229658371856314  0.6334229220690717  0.20736976804181673  1.0000
  O   O4        1.0  0.034665429494136424  0.6136794943463972  0.6271456866831688  1.0000
  O   O5        1.0  0.03620412739124924  0.8333746583937873  0.4094446329514252  1.0000
  O   O6        1.0  0.033690901034695075  0.41372776784834553  0.42507071290493514  1.0000
  O   O7        1.0  0.9035848374675781  0.8297518026709605  0.4080683294993384  1.0000
  O   O8        1.0  0.9020461499787147  0.6100583727428583  0.6257693051346727  1.0000
  O   O9        1.0  0.9026103805758441  0.6298017683893045  0.2059916508522326  1.0000
  O   O10       1.0  0.9010716230513687  0.41010660271501637  0.42369270395740677  1.0000
