data_image0
_chemical_formula_structural       NC5NC3F3CH3C6NH7C6ClH5Zn2C4O8
_chemical_formula_sum              "N3 C25 F3 H15 Cl1 Zn2 O8"
_cell_length_a       13.85151926108384
_cell_length_b       9.274771166103582
_cell_length_c       10.302974078461048
_cell_angle_alpha    85.4557754151483
_cell_angle_beta     89.99987480856441
_cell_angle_gamma    90.59705350001695

_space_group_name_H-M_alt    "P 1"
_space_group_IT_number       1

loop_
  _space_group_symop_operation_xyz
  'x, y, z'

loop_
  _atom_site_type_symbol
  _atom_site_label
  _atom_site_symmetry_multiplicity
  _atom_site_fract_x
  _atom_site_fract_y
  _atom_site_fract_z
  _atom_site_occupancy
  N   N1        1.0  0.9200991780120407  0.5786603182242682  0.5653648164499783  1.0000
  C   C1        1.0  0.847706203993554  0.5695782469126952  0.6216363708791803  1.0000
  C   C2        1.0  0.7576436466571072  0.5582789047283916  0.6916462345484049  1.0000
  C   C3        1.0  0.6701820537957452  0.5675025112845478  0.6236145120660384  1.0000
  C   C4        1.0  0.582591657061519  0.5582788915796568  0.6916462165056534  1.0000
  C   C5        1.0  0.49268695198684426  0.5695782630661785  0.6216364555684544  1.0000
  N   N2        1.0  0.42042099213420003  0.5786602803265286  0.5653649114818482  1.0000
  C   C6        1.0  0.5824466255014324  0.5388334582846992  0.8278698321811263  1.0000
  C   C7        1.0  0.669895029288348  0.5264192941186403  0.897043447719545  1.0000
  C   C8        1.0  0.6697861160997673  0.5108384506989316  0.043883691937457225  1.0000
  F   F1        1.0  0.7501983209554073  0.43600608302326344  0.09047884001421747  1.0000
  F   F2        1.0  0.5883295060809927  0.43600605241655455  0.09047892948993541  1.0000
  F   F3        1.0  0.6707338697731074  0.6466846700796516  0.09023781846501833  1.0000
  C   C9        1.0  0.757516951677557  0.5388333630088178  0.8278698500047549  1.0000
  H   H1        1.0  0.6702883760696432  0.58271809347558  0.5181450933916671  1.0000
  H   H2        1.0  0.5142871581086245  0.5336542156937296  0.8797990572057126  1.0000
  H   H3        1.0  0.8256039110633101  0.5336541347756394  0.8797990203780448  1.0000
  C   C10       1.0  0.16730077759789475  0.15506376284780865  0.5660724784326812  1.0000
  C   C11       1.0  0.14508547592148635  0.23837251871429818  0.4499744002916264  1.0000
  C   C12       1.0  0.1318838668178497  0.1733231373660582  0.3331397310749682  1.0000
  C   C13       1.0  0.14094817172959062  0.023587527178079663  0.3315568955894972  1.0000
  C   C14       1.0  0.16137826168129  0.9389593433002653  0.4460601254331817  1.0000
  C   C15       1.0  0.1732285557678961  0.002245801606599603  0.5646684776395594  1.0000
  N   N3        1.0  0.11026170908999933  0.2597313912506296  0.2157656678654123  1.0000
  H   H4        1.0  0.2759497625244718  0.23472406703454296  0.8502001987591075  1.0000
  H   H5        1.0  0.14021774576905277  0.35496522686662524  0.44947570178317164  1.0000
  H   H6        1.0  0.13124779096616446  0.9721003078348869  0.2416644051518999  1.0000
  H   H7        1.0  0.16563284029835157  0.8227953280605205  0.4423419731017335  1.0000
  H   H8        1.0  0.2424951154570012  0.7051794814430332  0.7579759274348838  1.0000
  H   H9        1.0  0.10361013457498958  0.37180529255233913  0.21572349999731233  1.0000
  H   H10       1.0  0.10065221341680444  0.21226137955966393  0.12800823101774395  1.0000
  C   C16       1.0  0.17026466811904095  0.5786547833770234  0.18412797104189949  1.0000
  C   C17       1.0  0.15242329289891354  0.42883391227378076  0.19360993522269476  1.0000
  C   C18       1.0  0.14357093860859085  0.3544968767063996  0.08135783604603208  1.0000
  C   C19       1.0  0.15242333664667415  0.4288339937390304  0.9585020361165811  1.0000
  C   C20       1.0  0.17026466513552999  0.5786547089173905  0.94661299023872  1.0000
  C   C21       1.0  0.17909840153759649  0.6528348618681088  0.06007983198751776  1.0000
  Cl  Cl1       1.0  0.12128282560021741  0.16733501644031645  0.09470660465168113  1.0000
  H   H11       1.0  0.17698576288790888  0.6350897196159662  0.5078592178820658  1.0000
  H   H12       1.0  0.14532737447272243  0.36924665321366157  0.2879063635161283  1.0000
  H   H13       1.0  0.14532744179067536  0.369246632630561  0.8727053974763406  1.0000
  H   H14       1.0  0.19285816230177355  0.7683812144869164  0.051838731583449864  1.0000
  H   H15       1.0  0.1769855790949364  0.6350897068509636  0.6148315874218246  1.0000
  Zn  Zn1       1.0  0.06448121925449968  0.5786564563946275  0.5653723333084528  1.0000
  Zn  Zn2       1.0  0.27603885111082294  0.5786523764606344  0.5653679994901428  1.0000
  C   C22       1.0  0.17022229007596093  0.5729082090531779  0.8024964917015982  1.0000
  C   C23       1.0  0.1703001032271341  0.5844024438156525  0.32824396545750045  1.0000
  C   C24       1.0  0.1721030986431722  0.8421103323650074  0.5597603851761668  1.0000
  C   C25       1.0  0.1684192103437383  0.3151985874358514  0.5709801440722915  1.0000
  O   O1        1.0  0.2505969702877496  0.5863235697617901  0.376608975467269  1.0000
  O   O2        1.0  0.25049276286971606  0.5709828983278564  0.7541278205053745  1.0000
  O   O3        1.0  0.2520104572933246  0.7883670174484741  0.5581166946243015  1.0000
  O   O4        1.0  0.24907920374605588  0.3689394609614651  0.5726200039903306  1.0000
  O   O5        1.0  0.09144079442504109  0.7883693718967595  0.5581203288029122  1.0000
  O   O6        1.0  0.08992311212339146  0.5709869858470752  0.7541313825892737  1.0000
  O   O7        1.0  0.09002731925394848  0.5863276070140919  0.376610976751383  1.0000
  O   O8        1.0  0.08850955263611376  0.3689434878964364  0.5726221026271039  1.0000
