data_image0
_chemical_formula_structural       NC9NC3OCH8C12NCOCH13C15H11Zn2C4O8
_chemical_formula_sum              "N3 C46 O10 H32 Zn2"
_cell_length_a       17.728193572023454
_cell_length_b       10.299155265289647
_cell_length_c       10.299157797200024
_cell_angle_alpha    85.52785804654131
_cell_angle_beta     90.72660703466438
_cell_angle_gamma    88.43175330785004

_space_group_name_H-M_alt    "P 1"
_space_group_IT_number       1

loop_
  _space_group_symop_operation_xyz
  'x, y, z'

loop_
  _atom_site_type_symbol
  _atom_site_label
  _atom_site_symmetry_multiplicity
  _atom_site_fract_x
  _atom_site_fract_y
  _atom_site_fract_z
  _atom_site_occupancy
  N   N1        1.0  0.7099695365014109  0.3874669642012063  0.5846925290002982  1.0000
  C   C1        1.0  0.6493655925760419  0.3500319065933071  0.5977092249230984  1.0000
  C   C2        1.0  0.5739220068344959  0.30349512844679954  0.6139096551484011  1.0000
  C   C3        1.0  0.562044316587549  0.17544366983535675  0.6233666377960176  1.0000
  C   C4        1.0  0.4853444195591323  0.1259835356260426  0.6383322900130517  1.0000
  C   C5        1.0  0.4271883150949869  0.20865480355065968  0.6557802503399117  1.0000
  C   C6        1.0  0.3491510612564604  0.16359648674779237  0.677528726055733  1.0000
  C   C7        1.0  0.2877892152565629  0.24908308018016134  0.6420404973515692  1.0000
  C   C8        1.0  0.21352470609804575  0.2097709316012606  0.6622010437342145  1.0000
  C   C9        1.0  0.15118326195951481  0.29779518121187865  0.6246376020435167  1.0000
  N   N2        1.0  0.1010741523850732  0.36855814931345215  0.5944401457799249  1.0000
  C   C10       1.0  0.19999084023604022  0.08485200255468818  0.7189040157082578  1.0000
  C   C11       1.0  0.26045429763586553  0.9996825520687589  0.7558008205766675  1.0000
  C   C12       1.0  0.33461527351686204  0.0385049938022044  0.7357700049898803  1.0000
  O   O1        1.0  0.4405251318342976  0.3424518916099619  0.6544472734310958  1.0000
  C   C13       1.0  0.5082300829109107  0.39985199650518766  0.6058181982211417  1.0000
  H   H1        1.0  0.6089809404475321  0.10597784842837599  0.6212847322515538  1.0000
  H   H2        1.0  0.47770648719297654  0.022326354064689413  0.6363785608318655  1.0000
  H   H3        1.0  0.2976559886017486  0.3459302159865374  0.5975836453003118  1.0000
  H   H4        1.0  0.14278452259785634  0.05355613257818882  0.7350540743002549  1.0000
  H   H5        1.0  0.2498508369199688  0.9034941943547659  0.8007186579110179  1.0000
  H   H6        1.0  0.3801635078368048  0.9712588630327468  0.7682113213264188  1.0000
  H   H7        1.0  0.4987314679224073  0.43581652894524653  0.5022744756613431  1.0000
  H   H8        1.0  0.5211130144485997  0.4842273656658189  0.6623810032994237  1.0000
  C   C14       1.0  0.9056097863595922  0.9966107907704566  0.5896872436114096  1.0000
  C   C15       1.0  0.8926876122171915  0.0069859292398744  0.4544324807235065  1.0000
  C   C16       1.0  0.8860626821572467  0.8951122386180526  0.38573591396235374  1.0000
  C   C17       1.0  0.8925070987120391  0.771735001719085  0.45412017977720365  1.0000
  C   C18       1.0  0.905441184427909  0.7594040231314589  0.5894568346499289  1.0000
  C   C19       1.0  0.9119162586215611  0.8723631522421565  0.6564072612420631  1.0000
  C   C20       1.0  0.8723935138438625  0.9070615066170531  0.24265272997056897  1.0000
  C   C21       1.0  0.910647062549005  0.9993533116141629  0.1621840044403018  1.0000
  C   C22       1.0  0.8977896841313434  0.010467182615706562  0.027533348973395547  1.0000
  C   C23       1.0  0.8468908794728329  0.9286064511303096  0.9705111171004126  1.0000
  C   C24       1.0  0.8077155001325135  0.8381755250098051  0.05088870431576931  1.0000
  C   C25       1.0  0.8206003559480688  0.8268043200489206  0.18550270706573713  1.0000
  N   N3        1.0  0.8316041834930947  0.9396377863673422  0.8325614065370095  1.0000
  C   C26       1.0  0.8866847391082097  0.9739479152199835  0.7357109991519644  1.0000
  O   O2        1.0  0.9559229011153089  0.9731243774820196  0.7652966101401018  1.0000
  C   C27       1.0  0.8625777565419231  0.0016117938341810836  0.5965625707101796  1.0000
  H   H9        1.0  0.9106036305712509  0.3200951252819868  0.641706900043697  1.0000
  H   H10       1.0  0.8867049925852937  0.1023395722344789  0.4024708516039306  1.0000
  H   H11       1.0  0.8884354685277792  0.6851523803374886  0.4013873221586741  1.0000
  H   H12       1.0  0.921885941992506  0.8636456033663158  0.7607317041931505  1.0000
  H   H13       1.0  0.9303054527429262  0.5288248316291742  0.8447781275308487  1.0000
  H   H14       1.0  0.9509539231181355  0.06243801631378698  0.20328313640018814  1.0000
  H   H15       1.0  0.9267272013645024  0.08454596904787316  0.9686708161346878  1.0000
  H   H16       1.0  0.767336017355304  0.7757987047299433  0.008920678164264784  1.0000
  H   H17       1.0  0.7892380951936449  0.756458800930288  0.24513780108246783  1.0000
  H   H18       1.0  0.7784439017413537  0.9133509348933446  0.8001613033636175  1.0000
  H   H19       1.0  0.8081013328703704  0.05769290316486585  0.5907509503848991  1.0000
  H   H20       1.0  0.8555841084846135  0.9083571331309745  0.5511616795506225  1.0000
  H   H21       1.0  0.9055263028677805  0.05964726348984417  0.5422346172200996  1.0000
  C   C28       1.0  0.9054379515028356  0.3781178800967508  0.20817780673609154  1.0000
  C   C29       1.0  0.8268379853913574  0.36393725821847056  0.2063993284438019  1.0000
  C   C30       1.0  0.7871470929843649  0.3566304588141884  0.08835932572954697  1.0000
  C   C31       1.0  0.8270622567494383  0.3637176679873506  0.971137685298555  1.0000
  C   C32       1.0  0.9056129666479389  0.3778968762629571  0.9709662538613548  1.0000
  C   C33       1.0  0.94434212955072  0.3850084224197485  0.09000520293155523  1.0000
  C   C34       1.0  0.7040493255951162  0.3416437223193356  0.08752537271668448  1.0000
  C   C35       1.0  0.6701117422592371  0.25629900877064027  0.005598287495084396  1.0000
  C   C36       1.0  0.5919132410727161  0.24228891861535629  0.004845733780465715  1.0000
  C   C37       1.0  0.5462596775302389  0.3126817183581967  0.08651776043782045  1.0000
  C   C38       1.0  0.5797932007483919  0.3988915771152996  0.16745780908029206  1.0000
  C   C39       1.0  0.6579909401078864  0.4129059027716289  0.16835829328992324  1.0000
  C   C40       1.0  0.4620172602558495  0.2999381908210117  0.08336018930483569  1.0000
  C   C41       1.0  0.4280567800638974  0.3953544984882049  0.9850750695369741  1.0000
  C   C42       1.0  0.4001463183973737  0.4738145279693673  0.9042578829271902  1.0000
  H   H22       1.0  0.7964854620488224  0.35677921597368695  0.2971831345484057  1.0000
  H   H23       1.0  0.7966003847504058  0.35995199133065525  0.879747723501195  1.0000
  H   H24       1.0  0.004930670258878725  0.39594149333036444  0.09058870762873439  1.0000
  H   H25       1.0  0.9358293104577325  0.38330908483476284  0.643428040964281  1.0000
  H   H26       1.0  0.7041352465605576  0.19928434849166152  0.9430905913136489  1.0000
  H   H27       1.0  0.5669427596035995  0.17633547333855493  0.9406841704201518  1.0000
  H   H28       1.0  0.5453290557762404  0.45561833953239983  0.22960961545294659  1.0000
  H   H29       1.0  0.6823454295662461  0.480996514116881  0.23086263829822395  1.0000
  H   H30       1.0  0.4469779314745325  0.2004176433879827  0.059569831775188486  1.0000
  H   H31       1.0  0.4379914062126022  0.31654585706718086  0.17997812288011406  1.0000
  H   H32       1.0  0.3756644711737044  0.5426986726011191  0.8333082914717065  1.0000
  Zn  Zn1       1.0  0.8228338942721357  0.38200681585306295  0.5875129819041596  1.0000
  Zn  Zn2       1.0  0.9882098249956213  0.3740076899509026  0.5916303344535867  1.0000
  C   C43       1.0  0.905579365975669  0.3727646301566472  0.8267844511942678  1.0000
  C   C44       1.0  0.9054661588590872  0.3832514270201675  0.35235903710478556  1.0000
  C   C45       1.0  0.9054679607997607  0.6152215254645459  0.5843247869294579  1.0000
  C   C46       1.0  0.9055775079645985  0.14079297398548118  0.5948187696791725  1.0000
  O   O3        1.0  0.9682349306037893  0.38193299944424797  0.4023100906744941  1.0000
  O   O4        1.0  0.968327099242339  0.3680109265618634  0.7799579993656014  1.0000
  O   O5        1.0  0.9682362924383489  0.5637979763394019  0.5841700835577821  1.0000
  O   O6        1.0  0.9683256809517762  0.1861459617154988  0.5980979076933997  1.0000
  O   O7        1.0  0.8427179818812899  0.5698685468195914  0.5810454072524645  1.0000
  O   O8        1.0  0.8428087883209864  0.37408305749996557  0.7768332533388251  1.0000
  O   O9        1.0  0.8427166193843055  0.38800508557244595  0.39918378315826497  1.0000
  O   O10       1.0  0.8428073697536048  0.1922180385260326  0.5949716975542023  1.0000
