data_image0
_chemical_formula_structural       NC5NC3OH4C9H6C9H8Zn2C4O8
_chemical_formula_sum              "N2 C30 O9 H18 Zn2"
_cell_length_a       13.84702359539666
_cell_length_b       9.275152443626249
_cell_length_c       9.275155815604963
_cell_angle_alpha    85.85171904572837
_cell_angle_beta     90.34320021190106
_cell_angle_gamma    90.5743638874884

_space_group_name_H-M_alt    "P 1"
_space_group_IT_number       1

loop_
  _space_group_symop_operation_xyz
  'x, y, z'

loop_
  _atom_site_type_symbol
  _atom_site_label
  _atom_site_symmetry_multiplicity
  _atom_site_fract_x
  _atom_site_fract_y
  _atom_site_fract_z
  _atom_site_occupancy
  N   N1        1.0  0.9132029193623573  0.565094382206534  0.40450687196677326  1.0000
  C   C1        1.0  0.8412678898768406  0.5569654899005685  0.4675849363609419  1.0000
  C   C2        1.0  0.7516817765393682  0.5468433017906749  0.5461304172894643  1.0000
  C   C3        1.0  0.6638461439784193  0.5566219719493672  0.47024984479828635  1.0000
  C   C4        1.0  0.5762333078977969  0.5469569145804509  0.5452483924958325  1.0000
  C   C5        1.0  0.48612333658852275  0.5570248218492106  0.46712422894789074  1.0000
  N   N2        1.0  0.4136865699306603  0.5651186483078019  0.4043186296258321  1.0000
  C   C6        1.0  0.5764514983938288  0.527484011667491  0.6963529536646722  1.0000
  C   C7        1.0  0.6639071254152109  0.517696203186056  0.7723015780016071  1.0000
  C   C8        1.0  0.7518369988684237  0.5272989863144839  0.6977878499376307  1.0000
  O   O1        1.0  0.8390134314839879  0.5174944840080602  0.7738679142751972  1.0000
  H   H1        1.0  0.6636816897791717  0.5717080196087554  0.35318703246397987  1.0000
  H   H2        1.0  0.5090924084147808  0.5198770944443407  0.7553802622791845  1.0000
  H   H3        1.0  0.6632924593095708  0.5026400843425989  0.8891329137872458  1.0000
  H   H4        1.0  0.8409079028211623  0.5034033500458959  0.8832103351192797  1.0000
  C   C9        1.0  0.1606067522864607  0.1414867574911587  0.40588517954020187  1.0000
  C   C10       1.0  0.12525001828539972  0.22316954042737458  0.2834592748030349  1.0000
  C   C11       1.0  0.09886040584246114  0.15665226178107305  0.15873762926525203  1.0000
  C   C12       1.0  0.10741099446296488  0.007269708817237323  0.1539723968255582  1.0000
  C   C13       1.0  0.14087488340554022  0.9238897720056773  0.27536424373296486  1.0000
  C   C14       1.0  0.16629194523411805  0.9887153050828423  0.40295274525915326  1.0000
  C   C15       1.0  0.08069921611259745  0.9390060336451537  0.02481505707002829  1.0000
  C   C16       1.0  0.05833430156679276  0.8818177399390252  0.9166660347028804  1.0000
  C   C17       1.0  0.03119888830523787  0.8124178597886753  0.7854461630768275  1.0000
  H   H5        1.0  0.30059304804779424  0.22562485287445377  0.6936621184436529  1.0000
  H   H6        1.0  0.12016096025666578  0.33968287386855645  0.28300784808989454  1.0000
  H   H7        1.0  0.07264472623296925  0.22208655389338003  0.06540640223353544  1.0000
  H   H8        1.0  0.1449238642603825  0.807545298899084  0.2713422337910343  1.0000
  H   H9        1.0  0.2574577672505751  0.6951164669762047  0.5997842326302394  1.0000
  H   H10       1.0  0.07158670900553753  0.8639646025993429  0.6921425061783468  1.0000
  C   C18       1.0  0.16165544353476813  0.5614545995305542  0.9812010320139297  1.0000
  C   C19       1.0  0.08657921744437469  0.6317417506798577  0.048801035089569345  1.0000
  C   C20       1.0  0.0180357886951612  0.7116165225843718  0.9672657811931518  1.0000
  C   C21       1.0  0.02329873181848252  0.722876741673891  0.8166430595822125  1.0000
  C   C22       1.0  0.0964263827542935  0.6518144345377925  0.7473381054294803  1.0000
  C   C23       1.0  0.16524322630196608  0.5687473847029023  0.827636885277117  1.0000
  C   C24       1.0  0.9528258122340096  0.8061216513887732  0.7327842567211893  1.0000
  C   C25       1.0  0.893817461963179  0.8758278952298041  0.6625373105114956  1.0000
  C   C26       1.0  0.8222214447072601  0.9604046361807713  0.577293041875587  1.0000
  H   H11       1.0  0.3850287138817794  0.44507729792081835  0.09447739363782337  1.0000
  H   H12       1.0  0.08221367770456367  0.6277427314149013  0.16560804595547518  1.0000
  H   H13       1.0  0.9614104820422965  0.7658339457075551  0.021912585078187607  1.0000
  H   H14       1.0  0.0982562340812918  0.6585978998011182  0.6301676598522894  1.0000
  H   H15       1.0  0.31424714160409617  0.48521476310403977  0.5542873783024986  1.0000
  H   H16       1.0  0.8418735744054481  0.9645503366210096  0.4612723257195425  1.0000
  H   H17       1.0  0.749951346102259  0.9090316920240498  0.5925241792414933  1.0000
  H   H18       1.0  0.820524858074074  0.07179376402749948  0.6134131511708487  1.0000
  Zn  Zn1       1.0  0.05763169745796359  0.5650975946268307  0.40446087277876686  1.0000
  Zn  Zn2       1.0  0.2692577384236934  0.5651037336416573  0.4043764314930809  1.0000
  C   C27       1.0  0.16452435565843704  0.5616220704449892  0.6676623114006897  1.0000
  C   C28       1.0  0.16236740398645666  0.568581079267346  0.14117512710301372  1.0000
  C   C29       1.0  0.16518800257879818  0.8285215651948432  0.39776400638053677  1.0000
  C   C30       1.0  0.1617036735484958  0.3016798520129049  0.41107351498719336  1.0000
  O   O2        1.0  0.24291728183495476  0.5709688272579321  0.19483187155108572  1.0000
  O   O3        1.0  0.24459373714853738  0.559237889986673  0.6139410668677256  1.0000
  O   O4        1.0  0.24512856415125597  0.7747626202820848  0.395996271229051  1.0000
  O   O5        1.0  0.24238238222981545  0.3554441063488507  0.4127765591229038  1.0000
  O   O6        1.0  0.08450698143423852  0.7747572219190473  0.39606074517017364  1.0000
  O   O7        1.0  0.083972165731516  0.5592342241276329  0.6140054579660519  1.0000
  O   O8        1.0  0.08229570280024401  0.5709650961999848  0.19489453008436985  1.0000
  O   O9        1.0  0.08176080357992242  0.3554403659039833  0.4128393257442746  1.0000
