data_image0
_chemical_formula_structural       NC9NC3OH6C6NCOH7C6NCH7Zn2C4O8
_chemical_formula_sum              "N4 C30 O10 H20 Zn2"
_cell_length_a       15.78231758774541
_cell_length_b       10.299619329790078
_cell_length_c       9.273390368590327
_cell_angle_alpha    86.17370271239353
_cell_angle_beta     90.0787864382203
_cell_angle_gamma    89.65730562172187

_space_group_name_H-M_alt    "P 1"
_space_group_IT_number       1

loop_
  _space_group_symop_operation_xyz
  'x, y, z'

loop_
  _atom_site_type_symbol
  _atom_site_label
  _atom_site_symmetry_multiplicity
  _atom_site_fract_x
  _atom_site_fract_y
  _atom_site_fract_z
  _atom_site_occupancy
  N   N1        1.0  0.7984175261724668  0.39807953516323363  0.4130482871581318  1.0000
  C   C1        1.0  0.7498598689948154  0.31627199266088835  0.4397625027340019  1.0000
  C   C2        1.0  0.6895737412353747  0.2147289510158472  0.47292172657690196  1.0000
  C   C3        1.0  0.7091963913361166  0.08717368396940575  0.5144869259074685  1.0000
  C   C4        1.0  0.6324464489527635  0.025356200034515327  0.5347137858877913  1.0000
  C   C5        1.0  0.57069535030426  0.11976213462180654  0.50399659434997  1.0000
  C   C6        1.0  0.47759889589423293  0.10230889475175212  0.5097775762830532  1.0000
  C   C7        1.0  0.4238873135314951  0.20932810192954854  0.47477263624528665  1.0000
  C   C8        1.0  0.33567633936485836  0.19501693971517445  0.47952084981931864  1.0000
  C   C9        1.0  0.28126923568269396  0.3051498386634297  0.4434882709577683  1.0000
  N   N2        1.0  0.23753881476263203  0.39368246666765755  0.41452129746719346  1.0000
  C   C10       1.0  0.3004956102496327  0.07352730882555171  0.5193283583779398  1.0000
  C   C11       1.0  0.3532763290122394  0.9667294071234706  0.5542657622160854  1.0000
  C   C12       1.0  0.44130151774982584  0.9806474052482121  0.549646578129074  1.0000
  O   O1        1.0  0.6071888078316683  0.23164440361216948  0.46748456892956725  1.0000
  H   H1        1.0  0.7716433347375002  0.04415693190804171  0.5284477689806344  1.0000
  H   H2        1.0  0.6236824768289801  0.9237109007456078  0.5678528991378657  1.0000
  H   H3        1.0  0.4505223969607502  0.3038685264978118  0.44379009608358433  1.0000
  H   H4        1.0  0.2323755181527202  0.06140647558823332  0.5233474928752373  1.0000
  H   H5        1.0  0.32591113230428875  0.8728353144604529  0.5850369597627338  1.0000
  H   H6        1.0  0.4803614549011516  0.896056033649197  0.5773286181650987  1.0000
  C   C13       1.0  0.01786983339403481  0.014513248799424392  0.4137468994146878  1.0000
  C   C14       1.0  0.9770134237727378  0.021723081504284595  0.2787167401972428  1.0000
  C   C15       1.0  0.9576909531945423  0.908605396117265  0.2096854041603997  1.0000
  C   C16       1.0  0.9772657517570482  0.786563159272127  0.2788285394860943  1.0000
  C   C17       1.0  0.018094556979693976  0.7772388493003692  0.4138351872478332  1.0000
  C   C18       1.0  0.038465875701968216  0.89182381460449  0.48025977046709906  1.0000
  N   N3        1.0  0.9147065769614653  0.9198031160297259  0.07251538365802612  1.0000
  C   C19       1.0  0.9280395198861517  0.8339060865659054  0.9591551648979268  1.0000
  O   O2        1.0  0.987524740933965  0.7516440174437606  0.9654138050672235  1.0000
  H   H7        1.0  0.09413238346718361  0.2081299163807695  0.6691643757021304  1.0000
  H   H8        1.0  0.9605983193712471  0.11548415379118283  0.2258363644405688  1.0000
  H   H9        1.0  0.9591516779171376  0.6988740832703717  0.22891208677649622  1.0000
  H   H10       1.0  0.06997158882693189  0.8853901260414104  0.5843449561307983  1.0000
  H   H11       1.0  0.03262958112106304  0.44616234685390876  0.4666726073846032  1.0000
  H   H12       1.0  0.8754884950411331  0.0005739872368062404  0.04904108824056164  1.0000
  H   H13       1.0  0.8878238927385278  0.8422736262760622  0.8643743122182506  1.0000
  C   C20       1.0  0.01802029000887238  0.39182583227328976  0.9905449188998015  1.0000
  C   C21       1.0  0.0958417220800149  0.3884661778940335  0.0644081559214682  1.0000
  C   C22       1.0  0.17230931725980903  0.39719267464055724  0.9892509623748915  1.0000
  C   C23       1.0  0.17289837400330077  0.4096111983233688  0.837626374953913  1.0000
  C   C24       1.0  0.09559275415547329  0.4107755288775562  0.7629550149634325  1.0000
  C   C25       1.0  0.017944151484265522  0.3999262567239079  0.8370371271519952  1.0000
  N   N4        1.0  0.25079851608393877  0.41981866075022733  0.7571006752314964  1.0000
  C   C26       1.0  0.33445796183186594  0.41913401775836046  0.8243695210349418  1.0000
  H   H14       1.0  0.8842625829253674  0.3307823317295038  0.275929076152839  1.0000
  H   H15       1.0  0.2306889322177662  0.3954130880463764  0.05056766053028539  1.0000
  H   H16       1.0  0.8204487310869518  0.3010097342547937  0.7408719827373345  1.0000
  H   H17       1.0  0.24805180948007666  0.42845310537726  0.6442166154972719  1.0000
  H   H18       1.0  0.339981582563577  0.5023877420252403  0.8938661409002862  1.0000
  H   H19       1.0  0.34476613793932653  0.3261987291841391  0.8899473890148735  1.0000
  H   H20       1.0  0.3841165678641074  0.42845463756621327  0.7396466572242342  1.0000
  Zn  Zn1       1.0  0.9251384391021442  0.396807246792726  0.41348168201902324  1.0000
  Zn  Zn2       1.0  0.11081786915692304  0.3949442683464611  0.4140996834511501  1.0000
  C   C27       1.0  0.017955110839654728  0.3932214392104539  0.67703137648161  1.0000
  C   C28       1.0  0.0180032255031428  0.3985316955534668  0.15055013738995981  1.0000
  C   C29       1.0  0.01804825989544101  0.633012530613474  0.40807501424998893  1.0000
  C   C30       1.0  0.017910012621254346  0.15873904522356044  0.4195065760717107  1.0000
  O   O3        1.0  0.08846187285890458  0.40006958819326394  0.20448387804813595  1.0000
  O   O4        1.0  0.08842285431454527  0.39026860534644886  0.623566269600313  1.0000
  O   O5        1.0  0.08849712332679549  0.5839029680984733  0.4063821011820463  1.0000
  O   O6        1.0  0.08838754049930303  0.20643523433300717  0.42166793818945236  1.0000
  O   O7        1.0  0.9475687043964882  0.5853162814432642  0.4059134270622471  1.0000
  O   O8        1.0  0.9474944358470646  0.3916834782552103  0.6230975188119092  1.0000
  O   O9        1.0  0.947533454590347  0.4014843992632997  0.2040133944003817  1.0000
  O   O10       1.0  0.9474591222148214  0.20785003714835962  0.4211975626001736  1.0000
