data_image0
_chemical_formula_structural       NC9NC3OH6C7OC3OC4H11C6NCOC6H11Zn2C4O8
_chemical_formula_sum              "N3 C43 O12 H28 Zn2"
_cell_length_a       15.78231758774541
_cell_length_b       10.299371110280154
_cell_length_c       10.299662537453274
_cell_angle_alpha    85.55769285269642
_cell_angle_beta     90.07028812251602
_cell_angle_gamma    89.64456115777638

_space_group_name_H-M_alt    "P 1"
_space_group_IT_number       1

loop_
  _space_group_symop_operation_xyz
  'x, y, z'

loop_
  _atom_site_type_symbol
  _atom_site_label
  _atom_site_symmetry_multiplicity
  _atom_site_fract_x
  _atom_site_fract_y
  _atom_site_fract_z
  _atom_site_occupancy
  N   N1        1.0  0.7982887032258843  0.41380311642788836  0.5703397392989082  1.0000
  C   C1        1.0  0.7497416599240222  0.33173036310703297  0.5943938125310098  1.0000
  C   C2        1.0  0.6894687065457518  0.22985812652142124  0.624251114652961  1.0000
  C   C3        1.0  0.7091079100127059  0.10189021006224873  0.6616772865518954  1.0000
  C   C4        1.0  0.6323659860763915  0.039871920968353125  0.6798900268858192  1.0000
  C   C5        1.0  0.5706026338484225  0.13458280979850024  0.6522316572192017  1.0000
  C   C6        1.0  0.4775084400607914  0.11707218030589049  0.6574370347756426  1.0000
  C   C7        1.0  0.423782975500917  0.22443890456120963  0.6259177714795956  1.0000
  C   C8        1.0  0.3355738546098735  0.21008060555697838  0.6301932170954829  1.0000
  C   C9        1.0  0.2811524652591241  0.32057122337666555  0.5977486379194701  1.0000
  N   N2        1.0  0.23741056057305213  0.4093914253478472  0.5716660946195922  1.0000
  C   C10       1.0  0.3004088815210898  0.08819578124498761  0.6660368699332366  1.0000
  C   C11       1.0  0.3532034535482107  0.9810510330753672  0.6974953252052538  1.0000
  C   C12       1.0  0.4412268399902562  0.9950148870411629  0.693336061022854  1.0000
  O   O1        1.0  0.6070815744710886  0.2468275599981231  0.619355433297333  1.0000
  H   H1        1.0  0.7715604385055657  0.058734856505403124  0.6742478838477723  1.0000
  H   H2        1.0  0.623615204088897  0.9378976249139259  0.7097291862577773  1.0000
  H   H3        1.0  0.4504057981987697  0.3192869115622041  0.5980203322992153  1.0000
  H   H4        1.0  0.23229035916510649  0.0760350489171764  0.669655827574982  1.0000
  H   H5        1.0  0.32585043372842676  0.8868514561186749  0.7252024666156744  1.0000
  H   H6        1.0  0.48029774946420695  0.9101486979713612  0.718261623043343  1.0000
  C   C13       1.0  0.0177965672043041  0.030226456083613188  0.5708879443565882  1.0000
  C   C14       1.0  0.00805482542345981  0.03966454747712334  0.4348728708505267  1.0000
  C   C15       1.0  0.0021842299961403184  0.9272474913193204  0.36643593027538146  1.0000
  C   C16       1.0  0.0080968351835835  0.804396123816101  0.4351840849554527  1.0000
  C   C17       1.0  0.017910786572725268  0.7929580360253741  0.5711291425660829  1.0000
  C   C18       1.0  0.022482018953379413  0.9064734244623278  0.6382314501857853  1.0000
  C   C19       1.0  0.9927812951937426  0.9370766088970752  0.2226599337056061  1.0000
  O   O2        1.0  0.02752439858197375  0.8517136988242006  0.15874167499900627  1.0000
  C   C20       1.0  0.943954632210715  0.04366392230511407  0.15140133532592026  1.0000
  C   C21       1.0  0.9676579805225904  0.08863528648764074  0.024329866883927135  1.0000
  C   C22       1.0  0.9218381378839697  0.18813589496316485  0.9548103960642468  1.0000
  O   O3        1.0  0.9489097032958819  0.2297203706975035  0.8287938158163097  1.0000
  C   C23       1.0  0.9085332823283971  0.32964280430436277  0.7472365489543762  1.0000
  C   C24       1.0  0.850751446324388  0.24268611411918517  0.013084006229220343  1.0000
  C   C25       1.0  0.8261784268979535  0.19743423926655868  0.1386357828923095  1.0000
  C   C26       1.0  0.8721487505570372  0.09821371240552002  0.2074035276263113  1.0000
  H   H7        1.0  0.03747329077375449  0.21974233904948035  0.8273413618854288  1.0000
  H   H8        1.0  0.005964942496881067  0.13464062940973975  0.3818366304919576  1.0000
  H   H9        1.0  0.004209206252619336  0.7175953642704158  0.38244968416277714  1.0000
  H   H10       1.0  0.029992733426333896  0.8983935408418604  0.7430891073704662  1.0000
  H   H11       1.0  0.02244918103641869  0.04720645958564695  0.9791223368871879  1.0000
  H   H12       1.0  0.9431121287804365  0.3424231309002299  0.653469732231259  1.0000
  H   H13       1.0  0.9097743618706714  0.42306871874865887  0.7942595443477747  1.0000
  H   H14       1.0  0.8421336784310013  0.3020842622945574  0.7272716957771603  1.0000
  H   H15       1.0  0.8139549940945864  0.3195748438047832  0.9620841936338431  1.0000
  H   H16       1.0  0.7710671789963249  0.23902816209618516  0.18262060915012168  1.0000
  H   H17       1.0  0.850996903654271  0.06324042436578292  0.3037187009846998  1.0000
  C   C27       1.0  0.01791202080134746  0.4117321821354434  0.18963277278989366  1.0000
  C   C28       1.0  0.10441161066923367  0.44323786985060404  0.1860902759501537  1.0000
  C   C29       1.0  0.1482350895760851  0.45722273395961704  0.06762253169068999  1.0000
  C   C30       1.0  0.10426329935360189  0.44292928522228925  0.9509464335089799  1.0000
  C   C31       1.0  0.01779534946262418  0.41145228405989465  0.9523842879701544  1.0000
  C   C32       1.0  0.975180171978344  0.3955861817077367  0.07229745505153184  1.0000
  N   N3        1.0  0.23647338921442118  0.4914219747703956  0.06741655141379876  1.0000
  C   C33       1.0  0.29643554772207503  0.4509693443685139  0.9733720767726769  1.0000
  O   O4        1.0  0.28096664686224004  0.3525661045683286  0.9117427167580879  1.0000
  C   C34       1.0  0.3777974791401855  0.5204809571435653  0.9512895950265854  1.0000
  C   C35       1.0  0.38803883762385305  0.6484488892279416  0.987714779764556  1.0000
  C   C36       1.0  0.4649165789875427  0.713232361234476  0.9657770910149375  1.0000
  C   C37       1.0  0.5321692151024406  0.6515294117505883  0.906986119355064  1.0000
  C   C38       1.0  0.5226156230689822  0.525000959666035  0.8695575007483334  1.0000
  C   C39       1.0  0.44588228239478345  0.45975900274253245  0.8911664018715264  1.0000
  H   H18       1.0  0.8545497654611655  0.3535100253755734  0.4034853098720157  1.0000
  H   H19       1.0  0.1383616217551028  0.45611601912653366  0.27561736907348355  1.0000
  H   H20       1.0  0.13708395619070612  0.45856354369504665  0.858937405933862  1.0000
  H   H21       1.0  0.9085014135545817  0.3712818687183695  0.07416421139444629  1.0000
  H   H22       1.0  0.9843529314716871  0.4010611796872173  0.6253563167810463  1.0000
  H   H23       1.0  0.25960489403837506  0.538393619268462  0.14642391438551017  1.0000
  H   H24       1.0  0.33656236007610896  0.6995015065085304  0.03134910775121157  1.0000
  H   H25       1.0  0.4722203193194456  0.8116389804244062  0.9939461014968195  1.0000
  H   H26       1.0  0.5915888532876274  0.7019108131734954  0.8900641733423966  1.0000
  H   H27       1.0  0.57471891670353  0.47735937111787685  0.8237291643426737  1.0000
  H   H28       1.0  0.4400304888142976  0.3615604185355321  0.8616268097970855  1.0000
  Zn  Zn1       1.0  0.9250097803910514  0.4125265259365421  0.5707299892977411  1.0000
  Zn  Zn2       1.0  0.11068945170382372  0.41065741242143255  0.5712864577788483  1.0000
  C   C40       1.0  0.01781471612564677  0.40633151808962326  0.8082062837521389  1.0000
  C   C41       1.0  0.017886543811330466  0.4168540384384971  0.3338102973879524  1.0000
  C   C42       1.0  0.01788562000225192  0.648787465568486  0.5659082585409589  1.0000
  C   C43       1.0  0.017815576330999287  0.174396531261831  0.5761083911557427  1.0000
  O   O5        1.0  0.08834246023781644  0.41785799559545295  0.3824087668179845  1.0000
  O   O6        1.0  0.08828537380090995  0.4039079674329393  0.7600297868609205  1.0000
  O   O7        1.0  0.08834167947663912  0.5996942203625182  0.564372414784351  1.0000
  O   O8        1.0  0.08828609121848262  0.2220717526296747  0.5780660413311907  1.0000
  O   O9        1.0  0.947413077513035  0.6011121863675535  0.5639504055486726  1.0000
  O   O10       1.0  0.9473567720776741  0.4053274937750302  0.7596077088719064  1.0000
  O   O11       1.0  0.9474138588030485  0.41927747725373904  0.3819851273861101  1.0000
  O   O12       1.0  0.9473574897639618  0.2234912249634136  0.5776424992659539  1.0000
