data_image0
_chemical_formula_structural       NC5NC3BrH3C9H10C9H8Zn2C4O8
_chemical_formula_sum              "N2 C30 Br1 H21 Zn2 O8"
_cell_length_a       13.839083392302014
_cell_length_b       10.297183801781404
_cell_length_c       9.275155815604963
_cell_angle_alpha    86.02609203372302
_cell_angle_beta     90.35828541235293
_cell_angle_gamma    90.02359494799444

_space_group_name_H-M_alt    "P 1"
_space_group_IT_number       1

loop_
  _space_group_symop_operation_xyz
  'x, y, z'

loop_
  _atom_site_type_symbol
  _atom_site_label
  _atom_site_symmetry_multiplicity
  _atom_site_fract_x
  _atom_site_fract_y
  _atom_site_fract_z
  _atom_site_occupancy
  N   N1        1.0  0.9032043501076631  0.40989589804868115  0.40950788339208133  1.0000
  C   C1        1.0  0.8312138664931705  0.35258148254240806  0.4120009582933751  1.0000
  C   C2        1.0  0.7415195763605676  0.2812625320153648  0.4151030477647917  1.0000
  C   C3        1.0  0.6539485868596631  0.3498868488970046  0.41211835833321697  1.0000
  C   C4        1.0  0.5659161263874285  0.28258883859784567  0.41504530248324745  1.0000
  C   C5        1.0  0.47614226747532984  0.3533307782094764  0.41196835003448595  1.0000
  N   N2        1.0  0.4039757327616315  0.4102017502162829  0.4094945244645423  1.0000
  C   C6        1.0  0.5653888819356022  0.14638597804004294  0.42096918535593436  1.0000
  C   C7        1.0  0.6525148482631461  0.0776524490052637  0.42395853342295187  1.0000
  C   C8        1.0  0.7407434725122319  0.14430733213690816  0.4210595810368474  1.0000
  Br  Br1       1.0  0.8581673010275452  0.04516196555615081  0.4253718078811975  1.0000
  H   H1        1.0  0.654302065390545  0.45543253693946256  0.40752765107766686  1.0000
  H   H2        1.0  0.497705576813798  0.09338439749121719  0.4232741199776283  1.0000
  H   H3        1.0  0.6513981237525774  0.9723311887765894  0.42853910218785884  1.0000
  C   C9        1.0  0.1535989008512184  0.028574841304436886  0.4097054302698866  1.0000
  C   C10       1.0  0.15014758977628473  0.037256076926660546  0.2580442908912189  1.0000
  C   C11       1.0  0.14837915868020746  0.9250872402732824  0.1803438541524658  1.0000
  C   C12       1.0  0.15013381088222766  0.8020804151985298  0.2574564747827792  1.0000
  C   C13       1.0  0.15359049517843437  0.7915128905473321  0.4093094433136536  1.0000
  C   C14       1.0  0.15529955836454223  0.9052285270604972  0.4844426596089071  1.0000
  C   C15       1.0  0.14464605470106706  0.9439088042394397  0.016311622899376273  1.0000
  C   C16       1.0  0.08773029289109902  0.8445346810972978  0.9360834612917058  1.0000
  C   C17       1.0  0.19779576149715125  0.844874591176325  0.9315021004125246  1.0000
  H   H4        1.0  0.15493797686534938  0.3527681423591329  0.46814533158474975  1.0000
  H   H5        1.0  0.14881539619877682  0.1320298783002778  0.19949472370183943  1.0000
  H   H6        1.0  0.1488362678242079  0.714038283919624  0.20053281780819002  1.0000
  H   H7        1.0  0.15796183301850839  0.8978033283169509  0.6014524134276829  1.0000
  H   H8        1.0  0.1601063626457262  0.5643373542821317  0.696116942876033  1.0000
  H   H9        1.0  0.14344705657751725  0.0442145942299892  0.9635887801559355  1.0000
  H   H10       1.0  0.05576062317504471  0.7613865076368489  0.0016730283729875545  1.0000
  H   H11       1.0  0.05321395055461497  0.8845954562218601  0.8341146664844112  1.0000
  H   H12       1.0  0.2326849565689848  0.7619337003885006  0.9943094891560951  1.0000
  H   H13       1.0  0.22760783623017167  0.8851316511353177  0.8268543720089219  1.0000
  C   C18       1.0  0.151824275213672  0.40675922598251013  0.9862779681754281  1.0000
  C   C19       1.0  0.07623224000301354  0.47001066600029034  0.054062000034200475  1.0000
  C   C20       1.0  0.007112291787083171  0.5418995280572303  0.9727417386074539  1.0000
  C   C21       1.0  0.012302547282888371  0.5520424153041852  0.8221545404960366  1.0000
  C   C22       1.0  0.0859500986408619  0.4880918365948053  0.752662557847124  1.0000
  C   C23       1.0  0.15536508424723564  0.41332846251433386  0.8327368911733386  1.0000
  C   C24       1.0  0.9412293370000521  0.626965013685555  0.7385201375603323  1.0000
  C   C25       1.0  0.8817183270269328  0.6897024600483536  0.6684610967255029  1.0000
  C   C26       1.0  0.809512417579516  0.7658237439079849  0.583444819714054  1.0000
  H   H14       1.0  0.37610858144213055  0.30208745008642923  0.09928424115414525  1.0000
  H   H15       1.0  0.07189107885464185  0.4664070459072987  0.17085552259016445  1.0000
  H   H16       1.0  0.9500898452287115  0.5906905421973907  0.027530946276852267  1.0000
  H   H17       1.0  0.08773538968968421  0.49420142973682646  0.6355130441446254  1.0000
  H   H18       1.0  0.3050164011538845  0.33819133747760755  0.5591895634946984  1.0000
  H   H19       1.0  0.8291479762535777  0.7695681252216462  0.46744337202206326  1.0000
  H   H20       1.0  0.7375461829442931  0.719521064315657  0.5984970244770277  1.0000
  H   H21       1.0  0.8070658595029464  0.866129419689118  0.6198975528482111  1.0000
  Zn  Zn1       1.0  0.047716191717010366  0.409980742118504  0.40951235938326436  1.0000
  Zn  Zn2       1.0  0.25946393288762604  0.41010635043809573  0.4095018817575251  1.0000
  C   C27       1.0  0.15469371163098566  0.40691166250466027  0.6727407509862172  1.0000
  C   C28       1.0  0.15248872582603878  0.4131770715925833  0.14627363064717128  1.0000
  C   C29       1.0  0.15356307228345134  0.6472567804318541  0.40364109828952577  1.0000
  C   C30       1.0  0.15361929325752266  0.1728303934862834  0.4153733609959801  1.0000
  O   O1        1.0  0.23306888582556473  0.4153729596069114  0.19996566328802534  1.0000
  O   O2        1.0  0.2348251859460677  0.4048101250861765  0.6190403516976066  1.0000
  O   O3        1.0  0.233911103389858  0.598891858379176  0.40174047757292763  1.0000
  O   O4        1.0  0.23398289567447295  0.22129123472516835  0.4172654293485585  1.0000
  O   O5        1.0  0.07319715667102011  0.5987958577899236  0.4017488117882251  1.0000
  O   O6        1.0  0.07411123888413695  0.40471568463452107  0.6190486082567813  1.0000
  O   O7        1.0  0.07235493157996897  0.41527846043889083  0.19997218708445552  1.0000
  O   O8        1.0  0.07326894187703448  0.22119672710438246  0.41727206120512905  1.0000
