data_image0
_chemical_formula_structural       NC3SC3NH2C6H6C6H6Zn2C4O8
_chemical_formula_sum              "N2 C22 S1 H14 Zn2 O8"
_cell_length_a       14.05945120258396
_cell_length_b       10.302277161923591
_cell_length_c       10.30228053409233
_cell_angle_alpha    85.56070437420854
_cell_angle_beta     89.94782287377025
_cell_angle_gamma    90.06120788589473

_space_group_name_H-M_alt    "P 1"
_space_group_IT_number       1

loop_
  _space_group_symop_operation_xyz
  'x, y, z'

loop_
  _atom_site_type_symbol
  _atom_site_label
  _atom_site_symmetry_multiplicity
  _atom_site_fract_x
  _atom_site_fract_y
  _atom_site_fract_z
  _atom_site_occupancy
  N   N1        1.0  0.8956097167761591  0.4223654198646229  0.5666631836979117  1.0000
  C   C1        1.0  0.8194590717256233  0.38844944653651664  0.5954952991180382  1.0000
  C   C2        1.0  0.7248629913127579  0.34632371543082874  0.6313064948844715  1.0000
  C   C3        1.0  0.706618377269148  0.24112595147765736  0.720735088089105  1.0000
  S   S1        1.0  0.5878981098563402  0.22414248530841746  0.7351720711848652  1.0000
  C   C4        1.0  0.5599589074882232  0.34978103648307457  0.628366587930959  1.0000
  C   C5        1.0  0.6429459560635821  0.4075678732939534  0.5792424686210957  1.0000
  C   C6        1.0  0.46502743767877774  0.39041406387699906  0.5938245436884777  1.0000
  N   N2        1.0  0.3885325313064004  0.4231558873709394  0.5659908944738732  1.0000
  H   H1        1.0  0.7594051776008697  0.18060305369540375  0.7721860266947476  1.0000
  H   H2        1.0  0.6441954268339923  0.49090425177812946  0.5083984579639544  1.0000
  C   C7        1.0  0.14207569220845606  0.04148755491064304  0.566332653432486  1.0000
  C   C8        1.0  0.09734903707089383  0.9204544327239678  0.5952207134041947  1.0000
  C   C9        1.0  0.1420756464177182  0.8040237890001638  0.5663326858430098  1.0000
  C   C10       1.0  0.2325216449317389  0.8099077360495923  0.5079153566780952  1.0000
  C   C11       1.0  0.2772569122740398  0.9297108006492966  0.4790216570278025  1.0000
  C   C12       1.0  0.23252163091690137  0.044910679427915275  0.50791526855712  1.0000
  H   H3        1.0  0.9715154780162654  0.24222789181423646  0.6764942602412516  1.0000
  H   H4        1.0  0.0276634339835924  0.9168691152672134  0.6402291789701686  1.0000
  H   H5        1.0  0.9715157947752391  0.5857323826956293  0.6764952751558351  1.0000
  H   H6        1.0  0.26874478686442776  0.7219790723623248  0.4845195683626183  1.0000
  H   H7        1.0  0.3469137794740962  0.9332948025275386  0.4340316349404021  1.0000
  H   H8        1.0  0.2687448003546775  0.13656672226902614  0.48451942912365936  1.0000
  C   C13       1.0  0.1420756874008029  0.42275565921806546  0.18506450217133907  1.0000
  C   C14       1.0  0.10936081919401963  0.473437678000562  0.06245041218304226  1.0000
  C   C15       1.0  0.14207568005316626  0.42275565757417194  0.9476008172166219  1.0000
  C   C16       1.0  0.2082314925976647  0.3202668299430431  0.9566819033369135  1.0000
  C   C17       1.0  0.24095274080305149  0.2695750537158115  0.07806629825553801  1.0000
  C   C18       1.0  0.20823159937307212  0.3202668468443808  0.191684813747671  1.0000
  H   H9        1.0  0.01732096737359435  0.6160259235186876  0.3797756266309835  1.0000
  H   H10       1.0  0.05839009555785048  0.5524019339589088  0.05640177153387538  1.0000
  H   H11       1.0  0.01732039389177032  0.6160252529345289  0.7232804977888669  1.0000
  H   H12       1.0  0.23472657065011857  0.279220607904935  0.8700337772541934  1.0000
  H   H13       1.0  0.29190255316025193  0.19064350982287645  0.08411263424788219  1.0000
  H   H14       1.0  0.23472667620643772  0.27922059550396305  0.28462126638835095  1.0000
  Zn  Zn1       1.0  0.03785660135565206  0.42259006297881513  0.5664766784552075  1.0000
  Zn  Zn2       1.0  0.24628565673078873  0.42292064508530824  0.5661880528707925  1.0000
  C   C19       1.0  0.1420735562925011  0.4175833001280287  0.8034651254721334  1.0000
  C   C20       1.0  0.14207097783269984  0.4279290497539811  0.329199730134877  1.0000
  C   C21       1.0  0.14207078081448635  0.6598882036149603  0.561158862973808  1.0000
  C   C22       1.0  0.14207368218848515  0.18562258624364064  0.5715060619520091  1.0000
  O   O1        1.0  0.2211671375364793  0.4297850767458198  0.37746329742584095  1.0000
  O   O2        1.0  0.22117022689842616  0.4159771978294746  0.7549821242936657  1.0000
  O   O3        1.0  0.22116691938943842  0.6116414700677837  0.5593181044458393  1.0000
  O   O4        1.0  0.22117037392275085  0.2341208136825903  0.5731272200232143  1.0000
  O   O5        1.0  0.0629718130370829  0.611389894270135  0.5595375113944501  1.0000
  O   O6        1.0  0.0629751205416933  0.4157271819438364  0.7552014620151346  1.0000
  O   O7        1.0  0.06297203124302642  0.4295350156156268  0.3776810741590637  1.0000
  O   O8        1.0  0.06297526762540695  0.2338707432659195  0.5733450940985545  1.0000
