data_image0
_chemical_formula_structural       NC5OC5NC4H8C6NH7C6ClH5Zn2C4O8
_chemical_formula_sum              "N3 C30 O9 H20 Cl1 Zn2"
_cell_length_a       19.189071930511275
_cell_length_b       9.274771166103582
_cell_length_c       10.302974078461048
_cell_angle_alpha    85.4557754151483
_cell_angle_beta     89.9779158844828
_cell_angle_gamma    90.58817672672019

_space_group_name_H-M_alt    "P 1"
_space_group_IT_number       1

loop_
  _space_group_symop_operation_xyz
  'x, y, z'

loop_
  _atom_site_type_symbol
  _atom_site_label
  _atom_site_symmetry_multiplicity
  _atom_site_fract_x
  _atom_site_fract_y
  _atom_site_fract_z
  _atom_site_occupancy
  N   N1        1.0  0.6641673933247708  0.5784880632935323  0.5649030157707214  1.0000
  C   C1        1.0  0.6099684730087105  0.6297126193303288  0.5465328902083959  1.0000
  C   C2        1.0  0.5425519955056359  0.6934274310300488  0.5236832159464009  1.0000
  C   C3        1.0  0.5333985216670143  0.8010833228360075  0.4221211305659558  1.0000
  C   C4        1.0  0.4679110974239398  0.8630552441032824  0.40005102977805707  1.0000
  C   C5        1.0  0.4109177941282068  0.8172562735272999  0.47818836156245087  1.0000
  O   O1        1.0  0.3462797073913695  0.8832618925245617  0.4538474325822657  1.0000
  C   C6        1.0  0.2809756975627311  0.8170457325422391  0.47762468309725836  1.0000
  C   C7        1.0  0.22464719421950483  0.903225906918684  0.5077323225293485  1.0000
  C   C8        1.0  0.15853711617348132  0.8415710662712642  0.5306522901160322  1.0000
  C   C9        1.0  0.148092659948665  0.6929337875811079  0.5223603246473079  1.0000
  C   C10       1.0  0.08003536108642381  0.6294406351054365  0.5458039205219654  1.0000
  N   N2        1.0  0.02532129436303821  0.578394348946488  0.5646519682444143  1.0000
  C   C11       1.0  0.2039462014051789  0.6064112034090046  0.4903364775000839  1.0000
  C   C12       1.0  0.270047640081249  0.668109851948461  0.46746005898154697  1.0000
  C   C13       1.0  0.42055848240071986  0.7106029610014264  0.5813666536380688  1.0000
  C   C14       1.0  0.4860369704914654  0.6486264807381827  0.6034981203143504  1.0000
  H   H1        1.0  0.5768289759069691  0.8371956077113065  0.3601901484875769  1.0000
  H   H2        1.0  0.46129590971455003  0.9464021203032214  0.321469113014714  1.0000
  H   H3        1.0  0.23226166251625371  0.018269371346387956  0.5141163157249049  1.0000
  H   H4        1.0  0.1156317900148641  0.9097337852451433  0.5546357977270622  1.0000
  H   H5        1.0  0.1963260721892006  0.4915378538016532  0.48237785566809216  1.0000
  H   H6        1.0  0.31224503164776884  0.6001789468765188  0.44006353614245985  1.0000
  H   H7        1.0  0.3778491605369801  0.6769091108426459  0.6457460852076033  1.0000
  H   H8        1.0  0.4926645670117027  0.56644346570903  0.6831692461498242  1.0000
  C   C15       1.0  0.8426082026920649  0.15484522845564963  0.5654866064909669  1.0000
  C   C16       1.0  0.8265722368321428  0.23815814332514962  0.4493996782798859  1.0000
  C   C17       1.0  0.8170427442343999  0.17311123349554183  0.3325716349924723  1.0000
  C   C18       1.0  0.8235857516725101  0.02337392634787427  0.33098425010377897  1.0000
  C   C19       1.0  0.8383330744751756  0.9387419176826746  0.44547722602088435  1.0000
  C   C20       1.0  0.846887129431119  0.0020261574547071307  0.5640796305272866  1.0000
  N   N3        1.0  0.8014349353379817  0.2595235353386063  0.21520842401207152  1.0000
  H   H9        1.0  0.9210357405385584  0.23448519209234278  0.8495597955492009  1.0000
  H   H10       1.0  0.8230584986134701  0.3547517627819752  0.44890342290054613  1.0000
  H   H11       1.0  0.8165835971658375  0.9718885230463177  0.2410966283178799  1.0000
  H   H12       1.0  0.8414042133885854  0.8225771059286379  0.44175693830300966  1.0000
  H   H13       1.0  0.8968867289228654  0.704946869660339  0.7573523152178498  1.0000
  H   H14       1.0  0.7966335410831966  0.3715986819044508  0.21516959459019855  1.0000
  H   H15       1.0  0.794498385621438  0.21205532267436603  0.12745581020058847  1.0000
  C   C21       1.0  0.8447476670982638  0.5784356941047286  0.1835406115141842  1.0000
  C   C22       1.0  0.8318689905854953  0.4286181631466859  0.19303153033747122  1.0000
  C   C23       1.0  0.8254789782756333  0.3542827848589889  0.0807838741853457  1.0000
  C   C24       1.0  0.8318690221645219  0.42861824460374537  0.9579236312094008  1.0000
  C   C25       1.0  0.8447476649446364  0.5784356196456546  0.9460256307125027  1.0000
  C   C26       1.0  0.8511242380572818  0.6526141188022079  0.05948803878114073  1.0000
  Cl  Cl1       1.0  0.8093904540462317  0.16712509722717628  0.09414382926520592  1.0000
  H   H16       1.0  0.8495992440799676  0.6348693720644105  0.5072684850156893  1.0000
  H   H17       1.0  0.8267468496717829  0.36903223253785367  0.2873315200947417  1.0000
  H   H18       1.0  0.8267468982647939  0.36903221194215025  0.8721305540211666  1.0000
  H   H19       1.0  0.8610566286711514  0.7681578954088916  0.05124003230974972  1.0000
  H   H20       1.0  0.8495991114102482  0.6348693593338162  0.614240854647695  1.0000
  Zn  Zn1       1.0  0.768388597154233  0.5784571712055147  0.5648380668273438  1.0000
  Zn  Zn2       1.0  0.9211000485344633  0.5784134848398532  0.5647275515663939  1.0000
  C   C27       1.0  0.8447170767933496  0.5726891277146227  0.8019091534435568  1.0000
  C   C28       1.0  0.8447732456923296  0.5841833479094294  0.32765658814479304  1.0000
  C   C29       1.0  0.8460747257873704  0.8418908989138136  0.5591721029343739  1.0000
  C   C30       1.0  0.8434155358352385  0.31497984365805265  0.5703937107856543  1.0000
  O   O2        1.0  0.9027349982536348  0.586089441202996  0.3759812969037436  1.0000
  O   O3        1.0  0.9026597768309294  0.5707487892780919  0.7535001942438808  1.0000
  O   O4        1.0  0.9037553143265386  0.7881326242659186  0.5574883066271901  1.0000
  O   O5        1.0  0.9016394087000715  0.36870561654896394  0.5719930871986194  1.0000
  O   O6        1.0  0.7878491848757094  0.7881650395128832  0.5575725312259997  1.0000
  O   O7        1.0  0.7867536561302543  0.570782937593721  0.7535843467418948  1.0000
  O   O8        1.0  0.786828877345447  0.5861235392517621  0.3760638886021168  1.0000
  O   O9        1.0  0.7857332877369221  0.3687397042804139  0.5720757762496897  1.0000
