data_image0
_chemical_formula_structural       NC5NC3OH4C9H8C7NH4Zn2C4O8
_chemical_formula_sum              "N3 C28 O9 H16 Zn2"
_cell_length_a       13.84702359539666
_cell_length_b       9.275152443626249
_cell_length_c       9.275157849593905
_cell_angle_alpha    85.91609934181939
_cell_angle_beta     89.7265770318806
_cell_angle_gamma    90.5743638874884

_space_group_name_H-M_alt    "P 1"
_space_group_IT_number       1

loop_
  _space_group_symop_operation_xyz
  'x, y, z'

loop_
  _atom_site_type_symbol
  _atom_site_label
  _atom_site_symmetry_multiplicity
  _atom_site_fract_x
  _atom_site_fract_y
  _atom_site_fract_z
  _atom_site_occupancy
  N   N1        1.0  0.9246931074175125  0.5634691378191135  0.4046343267619614  1.0000
  C   C1        1.0  0.8523038115930756  0.5554044997981245  0.46770735221134413  1.0000
  C   C2        1.0  0.7621520409482203  0.5453623218116168  0.5462465585918861  1.0000
  C   C3        1.0  0.6748628739485059  0.5550636964480733  0.47037204776443786  1.0000
  C   C4        1.0  0.5867099243432514  0.5454750361294287  0.5453646042581559  1.0000
  C   C5        1.0  0.497162576159734  0.5554633624485137  0.46724668160156624  1.0000
  N   N2        1.0  0.4251781136418568  0.5634932121678737  0.4044460994586212  1.0000
  C   C6        1.0  0.58583991220568  0.5261560554337679  0.6964570945502508  1.0000
  C   C7        1.0  0.6727485835800409  0.5164456117953822  0.772399651787184  1.0000
  C   C8        1.0  0.7612150790550616  0.5259724917336335  0.6978918761975765  1.0000
  O   O1        1.0  0.8478436094383139  0.5162454881612297  0.7739658629351529  1.0000
  H   H1        1.0  0.6755414655163339  0.5700304984175998  0.35331858690680557  1.0000
  H   H2        1.0  0.5180557280256896  0.51860926620512  0.7554796878116238  1.0000
  H   H3        1.0  0.6712925387211328  0.5015085028488799  0.889221654587483  1.0000
  H   H4        1.0  0.848950634589836  0.5022657355348175  0.8832995490403581  1.0000
  C   C9        1.0  0.17208701424858663  0.13986291711269835  0.4060125242303032  1.0000
  C   C10       1.0  0.1376119491457095  0.22142099126073345  0.2835963993965025  1.0000
  C   C11       1.0  0.11212053872984208  0.15477666527662826  0.15888471715565178  1.0000
  C   C12       1.0  0.12070544490138779  0.005389258222767703  0.15411986538304687  1.0000
  C   C13       1.0  0.1532951118715702  0.9221329768594191  0.27550201499203686  1.0000
  C   C14       1.0  0.17779332557071803  0.987088477588817  0.4030803242046106  1.0000
  C   C15       1.0  0.09492381290917118  0.9369940173059976  0.024972843266619183  1.0000
  C   C16       1.0  0.0733377501071604  0.8796955579159693  0.9168324603045894  1.0000
  C   C17       1.0  0.047147336842825904  0.8101620110289024  0.7856230710814813  1.0000
  H   H5        1.0  0.310000840321496  0.22429415562933858  0.6937664742846243  1.0000
  H   H6        1.0  0.13252614213557035  0.3379338648574195  0.28314500874525317  1.0000
  H   H7        1.0  0.08657699824221199  0.22011588580871955  0.06556094582036964  1.0000
  H   H8        1.0  0.15737305784683822  0.8057844067442144  0.2714803263454122  1.0000
  H   H9        1.0  0.26754163549305643  0.6936901412985125  0.5998960878370805  1.0000
  H   H10       1.0  0.06476195788170247  0.6935707523257906  0.7990794834898425  1.0000
  H   H11       1.0  0.968604167051547  0.8225507035864138  0.7659239733189489  1.0000
  H   H12       1.0  0.0882070981144516  0.8616137103435905  0.6923268676770141  1.0000
  C   C18       1.0  0.1761941334107362  0.5593981558929098  0.9813623022848388  1.0000
  C   C19       1.0  0.2597486291176053  0.6064293965376295  0.0508642666992658  1.0000
  C   C20       1.0  0.3384256147356062  0.6648037419941681  0.9707546390600531  1.0000
  C   C21       1.0  0.33446696978955637  0.6770748622813032  0.8200547423391513  1.0000
  C   C22       1.0  0.2528900902748594  0.6288755778575406  0.7492145320124302  1.0000
  C   C23       1.0  0.1736862250372631  0.567553167290747  0.8277306127807212  1.0000
  C   C24       1.0  0.4229401646516808  0.7138439811397144  0.04355688677734103  1.0000
  N   N3        1.0  0.49086821812037706  0.7532591101679225  0.10207763234093314  1.0000
  H   H13       1.0  0.9408945534034514  0.5107481519179982  0.08945663318850092  1.0000
  H   H14       1.0  0.39491009738476457  0.7227080603176077  0.7570514028944721  1.0000
  H   H15       1.0  0.252727530458702  0.6364597476561593  0.6321239245219217  1.0000
  H   H16       1.0  0.01623158638159916  0.5287410244501336  0.5505175401804143  1.0000
  Zn  Zn1       1.0  0.06912221678331454  0.5634723033824725  0.40458833124856625  1.0000
  Zn  Zn2       1.0  0.2807488658658923  0.5634783563814315  0.4045038967084109  1.0000
  C   C25       1.0  0.17411938952351425  0.5602648885728154  0.6677687442171264  1.0000
  C   C26       1.0  0.17575401592223774  0.566687592771671  0.14132361796098286  1.0000
  C   C27       1.0  0.1767267504129053  0.8268894522072032  0.397891999824583  1.0000
  C   C28       1.0  0.17314657091848962  0.30006129671710524  0.41120044521093296  1.0000
  O   O2        1.0  0.2559174765099512  0.5691299980473488  0.19497607607948453  1.0000
  O   O3        1.0  0.25457565278163696  0.5578259851265852  0.6140517911662748  1.0000
  O   O4        1.0  0.25668004260072275  0.7731287065962265  0.3961244058873205  1.0000
  O   O5        1.0  0.25381301486670416  0.3538272858539564  0.4129033533002151  1.0000
  O   O6        1.0  0.09605799556474671  0.7731233739093795  0.39618887467798947  1.0000
  O   O7        1.0  0.09395361764226176  0.5578223848593482  0.6141161771207647  1.0000
  O   O8        1.0  0.0952954462302189  0.5691263308163328  0.19503872960733828  1.0000
  O   O9        1.0  0.09319098419337712  0.35382360934612334  0.41296611490752055  1.0000
