data_image0
_chemical_formula_structural       NC5NC3F3CH3C7NH5C6NCOH5Zn2C4O8
_chemical_formula_sum              "N4 C27 F3 H13 O9 Zn2"
_cell_length_a       13.85151926108384
_cell_length_b       9.275154477615127
_cell_length_c       9.27373355559583
_cell_angle_alpha    86.40037001266045
_cell_angle_beta     90.01106478647557
_cell_angle_gamma    89.43371178103573

_space_group_name_H-M_alt    "P 1"
_space_group_IT_number       1

loop_
  _space_group_symop_operation_xyz
  'x, y, z'

loop_
  _atom_site_type_symbol
  _atom_site_label
  _atom_site_symmetry_multiplicity
  _atom_site_fract_x
  _atom_site_fract_y
  _atom_site_fract_z
  _atom_site_occupancy
  N   N1        1.0  0.8985471937699799  0.5608914283246276  0.4164507721231432  1.0000
  C   C1        1.0  0.826281392676649  0.5524837488102535  0.4788693070572765  1.0000
  C   C2        1.0  0.7363770559210845  0.5420234464742029  0.5565268941458558  1.0000
  C   C3        1.0  0.6487855866564496  0.5504324706116461  0.48105336274614635  1.0000
  C   C4        1.0  0.561325066503015  0.5420234331160928  0.5565268740391309  1.0000
  C   C5        1.0  0.47126214045599935  0.5524837659659655  0.47886940117054655  1.0000
  N   N2        1.0  0.39886900841353917  0.5608913915754415  0.41645087740542075  1.0000
  C   C6        1.0  0.5614533659948134  0.5242094995497636  0.7076459723884299  1.0000
  C   C7        1.0  0.6490750873706922  0.5126248869364853  0.784368722796239  1.0000
  C   C8        1.0  0.649187682373575  0.4988003967759383  0.9472964944325756  1.0000
  F   F1        1.0  0.730620084503096  0.4245552028364685  0.9985917296946824  1.0000
  F   F2        1.0  0.5687512700506148  0.4245551733089947  0.998591828850901  1.0000
  F   F3        1.0  0.6482921127109554  0.6351409347003407  0.9995443816646294  1.0000
  C   C9        1.0  0.7365236934670918  0.5242094045269559  0.707645991623906  1.0000
  H   H1        1.0  0.6486781083919468  0.5643848162634018  0.36405223208620885  1.0000
  H   H2        1.0  0.49336773707876197  0.5196512400896505  0.7652663770022479  1.0000
  H   H3        1.0  0.8046844911308297  0.5196511587672954  0.7652663356485114  1.0000
  C   C10       1.0  0.15150628679365785  0.13748422819687423  0.4147829738313269  1.0000
  C   C11       1.0  0.12499936979944315  0.21929937329075422  0.287705463819248  1.0000
  C   C12       1.0  0.09064028372904522  0.15196925866808142  0.16735943788767013  1.0000
  C   C13       1.0  0.0822224103861362  0.001905771396330194  0.17267358654142853  1.0000
  C   C14       1.0  0.10962392469754172  0.9188518613414159  0.29685446608721167  1.0000
  C   C15       1.0  0.14591922047951175  0.9842876821012612  0.4181310900302557  1.0000
  C   C16       1.0  0.0628488830112024  0.23734977705251795  0.03875031238978655  1.0000
  N   N3        1.0  0.04051230552263864  0.3059801613741653  0.9353815184208027  1.0000
  H   H4        1.0  0.17024638188501845  0.21795247338369975  0.7685648045019713  1.0000
  H   H5        1.0  0.12894177849609223  0.3362128737957786  0.28342900743396243  1.0000
  H   H6        1.0  0.05530088419288726  0.9487864510389785  0.08018010722200786  1.0000
  H   H7        1.0  0.10455446519078264  0.8023829039268559  0.2967276250235775  1.0000
  H   H8        1.0  0.16263415523298802  0.6880616604305227  0.6551749802738465  1.0000
  C   C17       1.0  0.14868748122425623  0.5563432070139596  0.993212044128112  1.0000
  C   C18       1.0  0.060010905544764855  0.5480675706820606  0.06713078112744242  1.0000
  C   C19       1.0  0.9721352047959942  0.5514766013859225  0.9921947692855911  1.0000
  C   C20       1.0  0.9728794239030889  0.5678480389735798  0.8409117634103819  1.0000
  C   C21       1.0  0.06011855370184029  0.5739721535891028  0.7657805271568594  1.0000
  C   C22       1.0  0.1487380173979851  0.5654286596389668  0.839701998454629  1.0000
  N   N4        1.0  0.8831512641913358  0.5464195705522433  0.072189255226208  1.0000
  C   C23       1.0  0.7966115918230824  0.4800240028736536  0.02514431441996522  1.0000
  O   O1        1.0  0.7966073728488318  0.4037205597148255  0.9174917964946244  1.0000
  H   H9        1.0  0.37552443164570803  0.6564606393357354  0.08992134658399009  1.0000
  H   H10       1.0  0.9061420147018555  0.5774479169078867  0.7803351022580941  1.0000
  H   H11       1.0  0.30231800133477704  0.6267652998021791  0.5548382801774795  1.0000
  H   H12       1.0  0.8825525766265687  0.5847568612435687  0.17575983029425424  1.0000
  H   H13       1.0  0.7305466776927377  0.492116073164969  0.08561296021352405  1.0000
  Zn  Zn1       1.0  0.04292928800012197  0.5608876577127522  0.41645909476608417  1.0000
  Zn  Zn2       1.0  0.2544869750228045  0.5608835278810387  0.41645425984925355  1.0000
  C   C24       1.0  0.14876421044292323  0.5579673564866284  0.6796745425345794  1.0000
  C   C25       1.0  0.14865435078873057  0.5638056498252202  0.15323896068370058  1.0000
  C   C26       1.0  0.14696997863414296  0.8241621394164027  0.4117547600021507  1.0000
  C   C27       1.0  0.15044852184164784  0.2976091354266799  0.42115881321001836  1.0000
  O   O2        1.0  0.2289283130970985  0.5663022562765438  0.20694359604759735  1.0000
  O   O3        1.0  0.2290576446249214  0.5554665234180334  0.6259658183840486  1.0000
  O   O4        1.0  0.227607697556913  0.7704221932327321  0.4096187043644606  1.0000
  O   O5        1.0  0.2303781879002946  0.3513465956176452  0.4232906020427635  1.0000
  O   O6        1.0  0.06703800292836526  0.7704245899790434  0.4096227525666489  1.0000
  O   O7        1.0  0.0684879385579702  0.5554706516360082  0.6259697965864224  1.0000
  O   O8        1.0  0.06835860732240097  0.5663063156511103  0.20694584120169152  1.0000
  O   O9        1.0  0.0698084821961429  0.35135064583930947  0.42329295521535454  1.0000
