data_image0
_chemical_formula_structural       NC9NC3OH6C7NC2NH8C8H6Zn2C4O8
_chemical_formula_sum              "N4 C33 O9 H20 Zn2"
_cell_length_a       15.78231758774541
_cell_length_b       9.273995741505848
_cell_length_c       9.275144076552241
_cell_angle_alpha    86.09759500334717
_cell_angle_beta     90.54614249944106
_cell_angle_gamma    90.21461439936415

_space_group_name_H-M_alt    "P 1"
_space_group_IT_number       1

loop_
  _space_group_symop_operation_xyz
  'x, y, z'

loop_
  _atom_site_type_symbol
  _atom_site_label
  _atom_site_symmetry_multiplicity
  _atom_site_fract_x
  _atom_site_fract_y
  _atom_site_fract_z
  _atom_site_occupancy
  N   N1        1.0  0.7997171307631273  0.5582999309397589  0.4166407849007816  1.0000
  C   C1        1.0  0.7507668434151215  0.46736236317524754  0.44313813019344  1.0000
  C   C2        1.0  0.6899933680616132  0.35448673989628526  0.4760281653489129  1.0000
  C   C3        1.0  0.7090034038771812  0.21269615762766925  0.5172552091746436  1.0000
  C   C4        1.0  0.6319569656662126  0.14397946344341417  0.5373181962130447  1.0000
  C   C5        1.0  0.5706594937625726  0.24892103911647978  0.5068512842384341  1.0000
  C   C6        1.0  0.477479664342753  0.2295196503684478  0.5125860061723873  1.0000
  C   C7        1.0  0.4242814369902357  0.34848281259219993  0.4778647662501343  1.0000
  C   C8        1.0  0.3360021358343121  0.3325741939456224  0.4825750487379685  1.0000
  C   C9        1.0  0.2821232791322965  0.4549985877586915  0.4468344232376957  1.0000
  N   N2        1.0  0.2388174937050156  0.5534119956021036  0.4181021424019497  1.0000
  C   C10       1.0  0.3002389715929081  0.1975253687010048  0.5220605041319564  1.0000
  C   C11       1.0  0.35250742013067377  0.07880819293105801  0.5567147950075291  1.0000
  C   C12       1.0  0.44059905196358873  0.09427976653776081  0.5521324998005963  1.0000
  O   O1        1.0  0.6076900336822334  0.3732896988939658  0.470635858968353  1.0000
  H   H1        1.0  0.7712434782263323  0.16487889612602838  0.5311020069505688  1.0000
  H   H2        1.0  0.6227048990930417  0.0309903684805628  0.5701878443070612  1.0000
  H   H3        1.0  0.45136973282279663  0.45357470849634973  0.4471328398931975  1.0000
  H   H4        1.0  0.23206099866868632  0.18405157912179296  0.5260475126727722  1.0000
  H   H5        1.0  0.3246921116932794  0.9744347630204714  0.5872370921348389  1.0000
  H   H6        1.0  0.47925327940012286  0.00024746622066284765  0.5795902955892533  1.0000
  C   C13       1.0  0.016732388830576147  0.1323878498483706  0.41631003252986454  1.0000
  C   C14       1.0  0.030990169153374252  0.21455472366521036  0.28600139157582305  1.0000
  C   C15       1.0  0.05285509596024184  0.14832402909856768  0.16112460730436862  1.0000
  C   C16       1.0  0.061382113895488186  0.9977958714744916  0.16299041993340957  1.0000
  C   C17       1.0  0.04533949962496339  0.9143629274668353  0.29209903638955725  1.0000
  C   C18       1.0  0.02181031365542085  0.9793129437501799  0.41844531164249665  1.0000
  C   C19       1.0  0.08558068284174691  0.9295934053087751  0.029122672651286097  1.0000
  N   N3        1.0  0.0880455773341115  0.002935513139554094  0.8981514727704288  1.0000
  C   C20       1.0  0.11302965870698672  0.9041366034531887  0.8075785530377142  1.0000
  C   C21       1.0  0.1254824152882349  0.7736181052330316  0.8841414848843211  1.0000
  N   N4        1.0  0.10825610880299917  0.789782317216825  0.023453270006112525  1.0000
  H   H7        1.0  0.9490061185747742  0.39919270025658515  0.6235375404553181  1.0000
  H   H8        1.0  0.027281444588728148  0.3314074087337775  0.2813400140632969  1.0000
  H   H9        1.0  0.0643485604647202  0.21571197846314075  0.0632438151284267  1.0000
  H   H10       1.0  0.04821800803941856  0.797782737298252  0.2941061808305472  1.0000
  H   H11       1.0  0.024056424807564092  0.6829317269610284  0.6581579945715061  1.0000
  H   H12       1.0  0.12185839490273537  0.926257118610298  0.6926849554115888  1.0000
  H   H13       1.0  0.14608893076144924  0.6739787195525231  0.8414794591799875  1.0000
  H   H14       1.0  0.11326074311192452  0.7097744749689352  0.10772690723531753  1.0000
  C   C22       1.0  0.017257911370232464  0.5529217455397277  0.9940781040985834  1.0000
  C   C23       1.0  0.9625785560277076  0.647582142773315  0.06010509094929994  1.0000
  C   C24       1.0  0.9147407077765743  0.7493117421777431  0.9772638274809906  1.0000
  C   C25       1.0  0.9207183822432178  0.7584609226562117  0.8268762918852386  1.0000
  C   C26       1.0  0.9736381115763416  0.6637143549615379  0.7590873517069254  1.0000
  C   C27       1.0  0.021284790869161112  0.5587791394339849  0.840677313308972  1.0000
  C   C28       1.0  0.8716736949889624  0.86416831164818  0.7416710129082773  1.0000
  C   C29       1.0  0.8306136231396034  0.9526702190317284  0.6703180726543447  1.0000
  H   H15       1.0  0.19226235386933527  0.36166049888949076  0.11279106242075532  1.0000
  H   H16       1.0  0.9583258797836492  0.6452051896404696  0.17675499807165784  1.0000
  H   H17       1.0  0.8736613444263678  0.8218766767459897  0.030745854422059345  1.0000
  H   H18       1.0  0.976103128863004  0.6696794732069472  0.6420259325023778  1.0000
  H   H19       1.0  0.13725112509253456  0.42544499252426804  0.5709188366561526  1.0000
  H   H20       1.0  0.7945714004056248  0.030356015963372236  0.6076835261034037  1.0000
  Zn  Zn1       1.0  0.9264320232399552  0.5568855840156064  0.4170708087534909  1.0000
  Zn  Zn2       1.0  0.11210255821761822  0.5548146545102188  0.4176838724352072  1.0000
  C   C30       1.0  0.020487288008459222  0.5519271568024322  0.6806374079447317  1.0000
  C   C31       1.0  0.018049332547787733  0.5597748795940812  0.15411742600713274  1.0000
  C   C32       1.0  0.0208187933095587  0.8191864221802984  0.41229753666029834  1.0000
  C   C33       1.0  0.017717753868014885  0.2925138829106726  0.422457369565463  1.0000
  O   O2        1.0  0.08877590339845365  0.5612826558513959  0.2080607230274829  1.0000
  O   O3        1.0  0.09068034858579582  0.5488465022238915  0.6271589943810996  1.0000
  O   O4        1.0  0.09094710059024491  0.7646617599357328  0.41047265041388203  1.0000
  O   O5        1.0  0.08850908758498849  0.34546740841421264  0.42474695873071466  1.0000
  O   O6        1.0  0.9500254305123169  0.7662328308198365  0.41000772224119664  1.0000
  O   O7        1.0  0.9497586885262737  0.5504193051217625  0.6266939937177303  1.0000
  O   O8        1.0  0.9478542348505641  0.5628553965062879  0.20759398916436989  1.0000
  O   O9        1.0  0.9475874194858472  0.3470401395026712  0.4242803329148006  1.0000
