data_image0
_chemical_formula_structural       NC5NC3OH4C6NCH9C6NH7Zn2C4O8
_chemical_formula_sum              "N4 C25 O9 H20 Zn2"
_cell_length_a       13.84702359539666
_cell_length_b       9.273386996610926
_cell_length_c       9.274774538082514
_cell_angle_alpha    84.97283399596293
_cell_angle_beta     90.33539993850698
_cell_angle_gamma    89.39943260271846

_space_group_name_H-M_alt    "P 1"
_space_group_IT_number       1

loop_
  _space_group_symop_operation_xyz
  'x, y, z'

loop_
  _atom_site_type_symbol
  _atom_site_label
  _atom_site_symmetry_multiplicity
  _atom_site_fract_x
  _atom_site_fract_y
  _atom_site_fract_z
  _atom_site_occupancy
  N   N1        1.0  0.8916610372131621  0.5928062567535941  0.40508700789445995  1.0000
  C   C1        1.0  0.8198398585295422  0.5835836390357447  0.46823937850273034  1.0000
  C   C2        1.0  0.730395513489634  0.5720995323363227  0.5468773863164071  1.0000
  C   C3        1.0  0.6424229238143092  0.5831939136064899  0.47090742604964353  1.0000
  C   C4        1.0  0.5549454536067197  0.5722284387598127  0.5459943223962145  1.0000
  C   C5        1.0  0.46469447424491966  0.5836509592973318  0.4677781283028844  1.0000
  N   N2        1.0  0.3921443479198216  0.5928337868333897  0.4048985438163897  1.0000
  C   C6        1.0  0.5554363756776092  0.5501354982791118  0.6972768853380049  1.0000
  C   C7        1.0  0.6430290876994016  0.53903079870642  0.7733149769492449  1.0000
  C   C8        1.0  0.7308244675306711  0.5499255929179299  0.6987134717259625  1.0000
  O   O1        1.0  0.8181382190234541  0.5388019204596377  0.7748831586177573  1.0000
  H   H1        1.0  0.6420471790378243  0.6003097409386322  0.353706713471172  1.0000
  H   H2        1.0  0.4881838258625044  0.5415050926507536  0.7563737282745207  1.0000
  H   H3        1.0  0.6426252930244456  0.5219489138200102  0.8902839404766838  1.0000
  H   H4        1.0  0.8202300464737503  0.5228148725101815  0.8843543850250073  1.0000
  C   C9        1.0  0.1448799460204815  0.16916001858542007  0.4057008517129344  1.0000
  C   C10       1.0  0.1612951113359704  0.25377266596222925  0.27519868653427526  1.0000
  C   C11       1.0  0.16861740979567608  0.19040639497045017  0.1446918793853076  1.0000
  C   C12       1.0  0.15962965411327068  0.04013435679727051  0.1413505124512322  1.0000
  C   C13       1.0  0.14491446826153953  0.9545628352332791  0.27139872354551575  1.0000
  C   C14       1.0  0.1389347713976039  0.016468788465293645  0.4042971857355023  1.0000
  N   N3        1.0  0.16612438858053635  0.9717550739374994  0.008149631811043443  1.0000
  C   C15       1.0  0.1816276383396449  0.05087862849230552  0.8673036845197557  1.0000
  H   H5        1.0  0.16559333611745242  0.42924290933816356  0.642642522222376  1.0000
  H   H6        1.0  0.16621342772380565  0.37043424588142715  0.2734261619740379  1.0000
  H   H7        1.0  0.1803892407111416  0.2598626894976479  0.046652393521527516  1.0000
  H   H8        1.0  0.14034674488324272  0.8381813372100613  0.2691236349745406  1.0000
  H   H9        1.0  0.17595102476551183  0.8820483809528838  0.7558068691395716  1.0000
  H   H10       1.0  0.1593092816746462  0.8593615199965292  0.011145020774609552  1.0000
  H   H11       1.0  0.12165568571510876  0.12966721510449683  0.842250044295435  1.0000
  H   H12       1.0  0.2515277755254599  0.10843219295373752  0.8675102507357599  1.0000
  H   H13       1.0  0.18370751037407063  0.9741860403810244  0.7818606161405659  1.0000
  C   C16       1.0  0.14014834393660314  0.5965042515019218  0.9811772297038909  1.0000
  C   C17       1.0  0.2079803528844735  0.6816448177695822  0.04774692142419523  1.0000
  C   C18       1.0  0.2802282788489485  0.7549014575618063  0.9668332428970833  1.0000
  C   C19       1.0  0.28523117132882114  0.7433497906410934  0.8178731113703614  1.0000
  C   C20       1.0  0.21768669632703896  0.6613873776019223  0.7495954753151279  1.0000
  C   C21       1.0  0.1436663849557822  0.5891245349898018  0.8288207764066691  1.0000
  N   N4        1.0  0.34917035450182987  0.8398413729795977  0.03640809467785311  1.0000
  H   H14       1.0  0.9977749906965296  0.3144726744691827  0.1076191324189475  1.0000
  H   H15       1.0  0.2061939923542555  0.6884870815776638  0.16375637013579783  1.0000
  H   H16       1.0  0.3410177243617162  0.7990932520693588  0.754228837701416  1.0000
  H   H17       1.0  0.2220212072711676  0.6573745587601867  0.6334274519558791  1.0000
  H   H18       1.0  0.04477618884923708  0.4035582012058651  0.5630841442596093  1.0000
  H   H19       1.0  0.34630251570372916  0.8488883755182444  0.14776408586776446  1.0000
  H   H20       1.0  0.40357097684742205  0.8944502402558425  0.9770549101905615  1.0000
  Zn  Zn1       1.0  0.03608976956083376  0.5928102666702763  0.4050409496062073  1.0000
  Zn  Zn2       1.0  0.247715723225376  0.5928178696676165  0.4049564002671776  1.0000
  C   C22       1.0  0.14303957753573138  0.5847720887057191  0.6686075199533285  1.0000
  C   C23       1.0  0.1407682140148614  0.600857866812442  0.1413899676367678  1.0000
  C   C24       1.0  0.1400297113014508  0.8563594800601373  0.3988112305975393  1.0000
  C   C25       1.0  0.14377802051727828  0.329268741456802  0.41118633683899725  1.0000
  O   O2        1.0  0.22128723875563594  0.6023155711485761  0.19512675044195693  1.0000
  O   O3        1.0  0.22313976084731363  0.5833190701191342  0.6148061524977273  1.0000
  O   O4        1.0  0.22070817939669654  0.8026293102250097  0.3969437379368189  1.0000
  O   O5        1.0  0.22371874747110623  0.38300534230267047  0.4129890568004917  1.0000
  O   O6        1.0  0.06008667309750939  0.8026227940342646  0.39700829309415153  1.0000
  O   O7        1.0  0.06251824206239553  0.5833142879286531  0.6148706278298786  1.0000
  O   O8        1.0  0.06066571318589921  0.6023107537905161  0.19518949064617663  1.0000
  O   O9        1.0  0.06309722241892189  0.38300051368368315  0.4130519052283439  1.0000
