data_image0
_chemical_formula_structural       NC9NC3OH6C12H10C8H6Zn2C4O8
_chemical_formula_sum              "N2 C36 O9 H22 Zn2"
_cell_length_a       15.78231758774541
_cell_length_b       10.299137764757564
_cell_length_c       9.275144076552241
_cell_angle_alpha    85.93860642642608
_cell_angle_beta     90.54614249944106
_cell_angle_gamma    89.65025930418041

_space_group_name_H-M_alt    "P 1"
_space_group_IT_number       1

loop_
  _space_group_symop_operation_xyz
  'x, y, z'

loop_
  _atom_site_type_symbol
  _atom_site_label
  _atom_site_symmetry_multiplicity
  _atom_site_fract_x
  _atom_site_fract_y
  _atom_site_fract_z
  _atom_site_occupancy
  N   N1        1.0  0.7906714916572188  0.40348863943492763  0.4121576250206751  1.0000
  C   C1        1.0  0.7422490798502656  0.32158538017060495  0.43891659366792796  1.0000
  C   C2        1.0  0.6821308263393324  0.21992352946024613  0.4721313669920157  1.0000
  C   C3        1.0  0.7019639299163457  0.09221931319113863  0.5137663360426552  1.0000
  C   C4        1.0  0.6253163792390282  0.0303293665176736  0.5340270179665807  1.0000
  C   C5        1.0  0.563409741152488  0.12484538768744023  0.5032581937268978  1.0000
  C   C6        1.0  0.470342533158932  0.10737145461686515  0.5090487325969402  1.0000
  C   C7        1.0  0.4164537469409431  0.21451606996161487  0.4739852409261613  1.0000
  C   C8        1.0  0.3282667923353171  0.2001879132978912  0.4787412918052072  1.0000
  C   C9        1.0  0.27367728496701704  0.3104498997710152  0.4426484567464328  1.0000
  N   N2        1.0  0.2298002281478438  0.3990863022593402  0.41363304489531005  1.0000
  C   C10       1.0  0.29328756121909966  0.07855568561400195  0.5186152766877559  1.0000
  C   C11       1.0  0.34624514071706475  0.971632618885482  0.553611111619722  1.0000
  C   C12       1.0  0.43424696296424614  0.9855671493054977  0.5489843053807997  1.0000
  O   O1        1.0  0.5997183443062571  0.23685848454626152  0.46668496533125164  1.0000
  H   H1        1.0  0.7644815745085473  0.04915251844003453  0.527750701961968  1.0000
  H   H2        1.0  0.6167201931902965  0.928565317112395  0.5672217306822209  1.0000
  H   H3        1.0  0.4429320040098298  0.30916747760764  0.44295096983950527  1.0000
  H   H4        1.0  0.22518780111867542  0.06642046682261248  0.5226410487244015  1.0000
  H   H5        1.0  0.31903570048287805  0.8776283003137519  0.5844336864819102  1.0000
  H   H6        1.0  0.4734470302844119  0.9008766076359032  0.5767126279325308  1.0000
  C   C13       1.0  0.010159089548282589  0.019889336539906877  0.4130522028422907  1.0000
  C   C14       1.0  0.009405674363081921  0.02879660226243974  0.2612740790041048  1.0000
  C   C15       1.0  0.009106685562125124  0.916179399995898  0.18416136338315048  1.0000
  C   C16       1.0  0.00957124450762192  0.7935372626882088  0.2608782625857382  1.0000
  C   C17       1.0  0.01032076412182814  0.7826756240317062  0.4127509615721283  1.0000
  C   C18       1.0  0.010611492828169974  0.8963633334030024  0.4879029444632721  1.0000
  C   C19       1.0  0.008308643249709927  0.9266473307176714  0.023595100467694197  1.0000
  C   C20       1.0  0.05904627350726078  0.8433369533631085  0.9462231839676122  1.0000
  C   C21       1.0  0.0581897729523848  0.8534417849073396  0.7950830162366689  1.0000
  C   C22       1.0  0.0068001481065376145  0.946471335483015  0.7196068688500223  1.0000
  C   C23       1.0  0.956159846570911  0.029654710535412583  0.7951176733960716  1.0000
  C   C24       1.0  0.956803297808695  0.02004691778743895  0.9462580993165939  1.0000
  H   H7        1.0  0.010405659880124542  0.3439393836795432  0.47143596069399457  1.0000
  H   H8        1.0  0.01022216847585699  0.12354696433143839  0.20267352414145723  1.0000
  H   H9        1.0  0.008176366382100845  0.7064125159406813  0.20199671433869626  1.0000
  H   H10       1.0  0.011190299575721376  0.8887774487093553  0.6049728864015858  1.0000
  H   H11       1.0  0.011196655673433751  0.5548886861121192  0.6994009042698106  1.0000
  H   H12       1.0  0.10015162455180195  0.7716135105614355  0.002545605418576848  1.0000
  H   H13       1.0  0.09758386138150138  0.7892688872445527  0.7364429135166701  1.0000
  H   H14       1.0  0.006219685251315  0.9541008885187091  0.6026143098851295  1.0000
  H   H15       1.0  0.916184007872317  0.10147417745709508  0.7365030592313553  1.0000
  H   H16       1.0  0.9162573126183104  0.08442442844982456  0.0025997112850719753  1.0000
  C   C25       1.0  0.008243491622810016  0.39864475671386135  0.9896104170196591  1.0000
  C   C26       1.0  0.953014650411746  0.483900996211746  0.055365070100293005  1.0000
  C   C27       1.0  0.9045862808980942  0.5755241389864989  0.9722311350803685  1.0000
  C   C28       1.0  0.9105108460864273  0.5837643824766763  0.8218172776976211  1.0000
  C   C29       1.0  0.9639805614914705  0.4984305332319201  0.7543009191979908  1.0000
  C   C30       1.0  0.01223637004773725  0.403920240350909  0.8361927747672531  1.0000
  C   C31       1.0  0.8608525472464535  0.6789701362657338  0.7363078832445891  1.0000
  C   C32       1.0  0.8192787384081605  0.7586797089320335  0.6647003269230964  1.0000
  H   H17       1.0  0.1843581698203134  0.22638460222878298  0.10887362547697975  1.0000
  H   H18       1.0  0.9487757719352323  0.48176018451549774  0.1720218156115325  1.0000
  H   H19       1.0  0.8630856916998881  0.6408800177013585  0.02550439591877684  1.0000
  H   H20       1.0  0.9664109523844586  0.5038030392072427  0.6372223386124615  1.0000
  H   H21       1.0  0.12897668400985818  0.28383234409868846  0.5668178945493727  1.0000
  H   H22       1.0  0.7827855641797066  0.8286477114161623  0.6018422817752906  1.0000
  Zn  Zn1       1.0  0.9173945941529215  0.4022148026074625  0.4125917178868401  1.0000
  Zn  Zn2       1.0  0.1030771504883141  0.4003496122316089  0.4132107395410165  1.0000
  C   C33       1.0  0.011478641662291173  0.3977489766615173  0.6761725822535516  1.0000
  C   C34       1.0  0.008995131641315934  0.4048170574364891  0.1496300227650773  1.0000
  C   C35       1.0  0.010258757006734502  0.6384570299021743  0.4070638179002424  1.0000
  C   C36       1.0  0.010214952968103264  0.16410744488904333  0.4187388643731724  1.0000
  O   O2        1.0  0.0797129501333338  0.4061750417410088  0.20356898197991868  1.0000
  O   O3        1.0  0.08168958486220565  0.3949743736360284  0.6227030315966913  1.0000
  O   O4        1.0  0.08070356973495585  0.5893491896784221  0.40539579669206316  1.0000
  O   O5        1.0  0.08069890139192498  0.2118002349525241  0.42087610859100133  1.0000
  O   O6        1.0  0.9397727798849316  0.5907641805244119  0.404926348618031  1.0000
  O   O7        1.0  0.9407587949765723  0.39639092442667184  0.6222335060490489  1.0000
  O   O8        1.0  0.9387821521206415  0.4075915364722811  0.20309772341160182  1.0000
  O   O9        1.0  0.9397681038835128  0.21321672106775225  0.4204049580974065  1.0000
