data_image0
_chemical_formula_structural       NC9NC3OH6C8NH6C8NH7Zn2C4O8
_chemical_formula_sum              "N4 C32 O9 H19 Zn2"
_cell_length_a       15.78231758774541
_cell_length_b       9.27426342843186
_cell_length_c       9.274266800404106
_cell_angle_alpha    85.95096221083165
_cell_angle_beta     89.63778846235708
_cell_angle_gamma    90.24871893605766

_space_group_name_H-M_alt    "P 1"
_space_group_IT_number       1

loop_
  _space_group_symop_operation_xyz
  'x, y, z'

loop_
  _atom_site_type_symbol
  _atom_site_label
  _atom_site_symmetry_multiplicity
  _atom_site_fract_x
  _atom_site_fract_y
  _atom_site_fract_z
  _atom_site_occupancy
  N   N1        1.0  0.8150311007416275  0.5576837034419153  0.41159648682603867  1.0000
  C   C1        1.0  0.7658010396780368  0.46674379541047717  0.43838636176463863  1.0000
  C   C2        1.0  0.7046802935167306  0.35386526751794256  0.47163949731870725  1.0000
  C   C3        1.0  0.7232549220695632  0.21207098524200127  0.5133226532535884  1.0000
  C   C4        1.0  0.6459966978424905  0.14335254609252046  0.5336066905483368  1.0000
  C   C5        1.0  0.5850210504439056  0.24829688688539525  0.5028022036734764  1.0000
  C   C6        1.0  0.49178077203243864  0.2288950462430475  0.5085993386297436  1.0000
  C   C7        1.0  0.4389490789778504  0.34786123637063576  0.4734954141981109  1.0000
  C   C8        1.0  0.3506201370800626  0.33195225181150656  0.47825687391338945  1.0000
  C   C9        1.0  0.2971185644223199  0.4543797562948799  0.4421224294470629  1.0000
  N   N2        1.0  0.25411607999929187  0.5527956638833893  0.41307356896399194  1.0000
  C   C10       1.0  0.3144402312609494  0.19690002955766886  0.5181767606293083  1.0000
  C   C11       1.0  0.36634285826218305  0.07817983496119708  0.5532129448524572  1.0000
  C   C12       1.0  0.4544827802733439  0.09365176360586602  0.5485808783305339  1.0000
  O   O1        1.0  0.6224340016392985  0.3726687606743515  0.46618670764751946  1.0000
  H   H1        1.0  0.7853486870872632  0.16425244308683906  0.5273232680726709  1.0000
  H   H2        1.0  0.6363975092666864  0.030360512531522055  0.5668398025664214  1.0000
  H   H3        1.0  0.4663617224578858  0.4529557726974161  0.4424254232117364  1.0000
  H   H4        1.0  0.2462202371484847  0.18342592869712648  0.5222071136087945  1.0000
  H   H5        1.0  0.33820541520758507  0.9738037829531665  0.5840709954266396  1.0000
  H   H6        1.0  0.49284716601387807  0.9996170774997732  0.5763411605970594  1.0000
  C   C13       1.0  0.031895148628985764  0.13168834346188718  0.41263234213479905  1.0000
  C   C14       1.0  0.021545867189650663  0.21418283182510556  0.28085681896309844  1.0000
  C   C15       1.0  0.019501102676141344  0.14832269605455717  0.15030177754735075  1.0000
  C   C16       1.0  0.02844376309543327  0.9984261574219494  0.14829532573939663  1.0000
  C   C17       1.0  0.03652329173814039  0.9144457574462989  0.2791795807697366  1.0000
  C   C18       1.0  0.037259994693385354  0.978779993112737  0.4120502156610633  1.0000
  C   C19       1.0  0.024974680689399776  0.9274302265189912  0.007636700760292219  1.0000
  C   C20       1.0  0.9372141516665473  0.889232425334814  0.9753040941536746  1.0000
  N   N3        1.0  0.8679465939350183  0.8590824408057776  0.94979418946229  1.0000
  H   H7        1.0  0.10349239895771656  0.2116314005960738  0.7452134370525509  1.0000
  H   H8        1.0  0.011735004865050632  0.21459356941013177  0.050378040366872316  1.0000
  H   H9        1.0  0.04019025623544145  0.7979012411807895  0.2772931408007073  1.0000
  H   H10       1.0  0.0821578231558391  0.6824650292898773  0.6379093329789023  1.0000
  H   H11       1.0  0.06409326579355912  0.827920981526322  0.013346779426774756  1.0000
  H   H12       1.0  0.05040523040877429  0.0012924938606335855  0.9180154936712664  1.0000
  C   C21       1.0  0.03650622930417288  0.5520588830997163  0.9890392649751697  1.0000
  C   C22       1.0  0.9866175126653945  0.4493555734825492  0.07009408035824993  1.0000
  C   C23       1.0  0.9316730061249693  0.3579266787927895  0.0020774369439606776  1.0000
  C   C24       1.0  0.9247962780990338  0.36780719430284803  0.8513494952926635  1.0000
  C   C25       1.0  0.9758262686963693  0.46704931525508164  0.7689947111672986  1.0000
  C   C26       1.0  0.03264888367232909  0.5584094062825623  0.8356432350760659  1.0000
  C   C27       1.0  0.8664506924254561  0.2677103652681827  0.7781428021851418  1.0000
  C   C28       1.0  0.9114949438720872  0.1353380625215017  0.7471726699401007  1.0000
  N   N4        1.0  0.9470514770102989  0.030865687611551857  0.72272729418143  1.0000
  H   H13       1.0  0.1318482653751054  0.8684577272052811  0.068570358626042  1.0000
  H   H14       1.0  0.9887333048997992  0.4418615882653048  0.1871205135458846  1.0000
  H   H15       1.0  0.89378817984395  0.2801506723366747  0.06724937063210312  1.0000
  H   H16       1.0  0.9725476355654716  0.4703769946438408  0.6520903543518036  1.0000
  H   H17       1.0  0.09990029996782773  0.7685950576789111  0.5393800359249882  1.0000
  H   H18       1.0  0.8426187756479212  0.320791634386409  0.6752561763053784  1.0000
  H   H19       1.0  0.8106956776733893  0.2386939562993018  0.8481378089188667  1.0000
  Zn  Zn1       1.0  0.941741475056775  0.5562693305299202  0.4120310608761364  1.0000
  Zn  Zn2       1.0  0.12740554894854395  0.554198353330402  0.41265078663116905  1.0000
  C   C29       1.0  0.03333974281249483  0.551463116158939  0.6756209288632982  1.0000
  C   C30       1.0  0.035809319519762184  0.5590063660115829  0.14906106564264165  1.0000
  C   C31       1.0  0.036267730868886544  0.8186185640382257  0.4064160152359139  1.0000
  C   C32       1.0  0.032881256784260016  0.2918491865310151  0.4182660571011516  1.0000
  O   O2        1.0  0.10603393882380402  0.5605457872711942  0.20300103078249493  1.0000
  O   O3        1.0  0.10402985461755532  0.5483507799238228  0.6221509070278519  1.0000
  O   O4        1.0  0.10639328535846859  0.7640822045659827  0.4047660304032401  1.0000
  O   O5        1.0  0.10367044528610792  0.3448143728427754  0.4203857991071305  1.0000
  O   O6        1.0  0.9654765153612194  0.7656533117257833  0.4042960481811102  1.0000
  O   O7        1.0  0.9631130959414247  0.5499236193931405  0.621680846755531  1.0000
  O   O8        1.0  0.9651171877820256  0.5621185634780861  0.20252923746175686  1.0000
  O   O9        1.0  0.9627536936831208  0.34638713954416245  0.4199141138673037  1.0000
