data_image0
_chemical_formula_structural       NC5OC5NC4H8C6ClH5C6BrH4Zn2C4O8
_chemical_formula_sum              "N2 C30 O9 H17 Cl1 Br1 Zn2"
_cell_length_a       19.189071930511275
_cell_length_b       10.30297070629231
_cell_length_c       9.276567756262422
_cell_angle_alpha    86.12016662879066
_cell_angle_beta     90.16432666077901
_cell_angle_gamma    89.98947815314023

_space_group_name_H-M_alt    "P 1"
_space_group_IT_number       1

loop_
  _space_group_symop_operation_xyz
  'x, y, z'

loop_
  _atom_site_type_symbol
  _atom_site_label
  _atom_site_symmetry_multiplicity
  _atom_site_fract_x
  _atom_site_fract_y
  _atom_site_fract_z
  _atom_site_occupancy
  N   N1        1.0  0.6536954681925423  0.4066623475448508  0.41015121311936326  1.0000
  C   C1        1.0  0.5992059219558326  0.45258684838433383  0.3898573463599111  1.0000
  C   C2        1.0  0.5314279537149715  0.5097092716862626  0.36461482574394344  1.0000
  C   C3        1.0  0.521553843758168  0.6056102541229211  0.25209345322626886  1.0000
  C   C4        1.0  0.45571508682175965  0.6611716310810885  0.22771293826582228  1.0000
  C   C5        1.0  0.3990893038527609  0.6207152641714795  0.314350107295972  1.0000
  O   O1        1.0  0.3340755607907815  0.6798849177387871  0.287456723623305  1.0000
  C   C6        1.0  0.26914728655865233  0.6205202522557971  0.3137241143661036  1.0000
  C   C7        1.0  0.2124362907923436  0.6983806894263724  0.3472982701770902  1.0000
  C   C8        1.0  0.14667742771448702  0.6431130151834752  0.3726226037700595  1.0000
  C   C9        1.0  0.1369688018112208  0.5092520259671656  0.36314569012882414  1.0000
  C   C10       1.0  0.06927291106053361  0.45233491742390824  0.38904778986388094  1.0000
  N   N2        1.0  0.0148494042582694  0.4065755439325429  0.40987241247497397  1.0000
  C   C11       1.0  0.1932032207202355  0.43106465362051005  0.32744417862147135  1.0000
  C   C12       1.0  0.2589532992771188  0.48637218298905704  0.30216825919923296  1.0000
  C   C13       1.0  0.4094483873375415  0.5257324616140686  0.4286670929184062  1.0000
  C   C14       1.0  0.4752783382060441  0.47016758188834024  0.4531157070917897  1.0000
  H   H1        1.0  0.5646939514412513  0.6375067878209595  0.1834252269324712  1.0000
  H   H2        1.0  0.4485420670113257  0.7354183522970725  0.14065155370340635  1.0000
  H   H3        1.0  0.2194811761497576  0.8019871520486969  0.35459567599013997  1.0000
  H   H4        1.0  0.10346987308470003  0.704697049282911  0.39936661190332307  1.0000
  H   H5        1.0  0.1861490683152406  0.3275958923452795  0.31839946720405266  1.0000
  H   H6        1.0  0.3014457941187543  0.4249633917131581  0.27163670530232387  1.0000
  H   H7        1.0  0.36702147620265685  0.4960365819045806  0.5000572161252799  1.0000
  H   H8        1.0  0.4824597922887983  0.39697904392437633  0.5413881078526761  1.0000
  C   C15       1.0  0.8342757797846246  0.025371568537862373  0.4100180167664451  1.0000
  C   C16       1.0  0.9062782543170187  0.02245596355906753  0.43771558435305985  1.0000
  C   C17       1.0  0.9420039602452912  0.9040524733891393  0.4514582774103284  1.0000
  C   C18       1.0  0.9062782536541406  0.7873479942916916  0.4377155165884746  1.0000
  C   C19       1.0  0.8342757873513899  0.7878565110761574  0.41001809924349897  1.0000
  C   C20       1.0  0.798625529587203  0.9074617705684647  0.3963042969519851  1.0000
  Cl  Cl1       1.0  0.03195220580253967  0.901913704175734  0.48605903908246134  1.0000
  H   H9        1.0  0.8071537074382616  0.3537729370788021  0.3995840214657569  1.0000
  H   H10       1.0  0.9349153881099037  0.11182162001948924  0.4487314564088581  1.0000
  H   H11       1.0  0.9349153603883508  0.6966204262850652  0.44873135290786786  1.0000
  H   H12       1.0  0.74309503612842  0.9087820460826685  0.3749430558725537  1.0000
  H   H13       1.0  0.8071537044674708  0.4607449728025046  0.39958429351005487  1.0000
  C   C21       1.0  0.8336106045125473  0.4028832299503015  0.9868917932901731  1.0000
  C   C22       1.0  0.7716836047194194  0.4341523985782863  0.05755043911149938  1.0000
  C   C23       1.0  0.7128533326893387  0.4761149187941449  0.9788948670555873  1.0000
  C   C24       1.0  0.7148450490701065  0.48765817011957174  0.828397486186303  1.0000
  C   C25       1.0  0.7754058494926397  0.4549868810048734  0.7560128326544332  1.0000
  C   C26       1.0  0.834941000494735  0.4103448559715413  0.8331442893329681  1.0000
  Br  Br1       1.0  0.6343251284896896  0.5461345532757247  0.7212094222655727  1.0000
  H   H14       1.0  0.9294790389662899  0.2849392921135381  0.27765196762169686  1.0000
  H   H15       1.0  0.6658712563880099  0.5008791474978764  0.03524852515155529  1.0000
  H   H16       1.0  0.775296171834474  0.46161863639124984  0.6389624544240036  1.0000
  H   H17       1.0  0.9496041686529402  0.3969113024542501  0.5536610373976609  1.0000
  Zn  Zn1       1.0  0.7579167146374883  0.40663390777219255  0.4100790718658261  1.0000
  Zn  Zn2       1.0  0.910628193712559  0.4065935066994233  0.409956334742164  1.0000
  C   C27       1.0  0.8346879525303826  0.4037623837789793  0.673184432643428  1.0000
  C   C28       1.0  0.8338586236466436  0.4094666695960725  0.14685111404750928  1.0000
  C   C29       1.0  0.8342631842827315  0.643679970795699  0.40427622607426783  1.0000
  C   C30       1.0  0.8342833399052617  0.16954752346487598  0.41575939747828206  1.0000
  O   O2        1.0  0.891895071579991  0.4116551361483037  0.20048834524110637  1.0000
  O   O3        1.0  0.8925559830598235  0.4015422706796903  0.6194536320332219  1.0000
  O   O4        1.0  0.8922121984462644  0.5952787697846573  0.40230835328640785  1.0000
  O   O5        1.0  0.8922388039136255  0.21791864539180494  0.4176335159932659  1.0000
  O   O6        1.0  0.776306052323477  0.5953087690949439  0.4024018906490294  1.0000
  O   O7        1.0  0.7766498368131242  0.4015738291195867  0.6195470925685365  1.0000
  O   O8        1.0  0.7759889226562323  0.41168663407202977  0.20058007341285222  1.0000
  O   O9        1.0  0.7763326551568466  0.21795013498219598  0.41772535219397167  1.0000
