data_image0
_chemical_formula_structural       Zn8H24C48O28Zn8H24C48O28
_chemical_formula_sum              "Zn16 H48 C96 O56"
_cell_length_a       14.4988
_cell_length_b       17.1659
_cell_length_c       18.1536
_cell_angle_alpha    90.0
_cell_angle_beta     90.0
_cell_angle_gamma    90.0

_space_group_name_H-M_alt    "P 1"
_space_group_IT_number       1

loop_
  _space_group_symop_operation_xyz
  'x, y, z'

loop_
  _atom_site_type_symbol
  _atom_site_label
  _atom_site_symmetry_multiplicity
  _atom_site_fract_x
  _atom_site_fract_y
  _atom_site_fract_z
  _atom_site_occupancy
  Zn  Zn1       1.0  0.44449  0.93948  0.45177  1.0000
  Zn  Zn2       1.0  0.65292  0.94705  0.39764  1.0000
  Zn  Zn3       1.0  0.55551  0.4394799999999999  0.04823  1.0000
  Zn  Zn4       1.0  0.34707999999999994  0.44705  0.10236  1.0000
  Zn  Zn5       1.0  0.55551  0.06052  0.54823  1.0000
  Zn  Zn6       1.0  0.34707999999999994  0.05295  0.60236  1.0000
  Zn  Zn7       1.0  0.44449  0.56052  0.9517700000000001  1.0000
  Zn  Zn8       1.0  0.65292  0.5529499999999999  0.89764  1.0000
  H   H1        1.0  0.3691  0.1208  0.302  1.0000
  H   H2        1.0  0.3388  0.2318  0.2334  1.0000
  H   H3        1.0  0.596  0.22519999999999998  0.1531  1.0000
  H   H4        1.0  0.6265  0.11579999999999999  0.2227  1.0000
  H   H5        1.0  0.9358  0.8910999999999998  0.5537  1.0000
  H   H6        1.0  0.9216  0.0651  0.4075  1.0000
  H   H7        1.0  0.6309  0.6208  0.198  1.0000
  H   H8        1.0  0.6612  0.7318  0.2666  1.0000
  H   H9        1.0  0.404  0.7252  0.3469  1.0000
  H   H10       1.0  0.3735  0.6158  0.2773  1.0000
  H   H11       1.0  0.0642  0.3911  0.9463  1.0000
  H   H12       1.0  0.07839999999999997  0.5650999999999999  0.0925  1.0000
  H   H13       1.0  0.6309  0.8792  0.698  1.0000
  H   H14       1.0  0.6612  0.7682  0.7666  1.0000
  H   H15       1.0  0.404  0.7748  0.8469  1.0000
  H   H16       1.0  0.3735  0.8841999999999998  0.7773  1.0000
  H   H17       1.0  0.0642  0.1089  0.4462999999999999  1.0000
  H   H18       1.0  0.07839999999999997  0.9349  0.5925  1.0000
  H   H19       1.0  0.3691  0.3792  0.802  1.0000
  H   H20       1.0  0.3388  0.2682  0.7334  1.0000
  H   H21       1.0  0.596  0.2748  0.6531  1.0000
  H   H22       1.0  0.6265  0.3842  0.7227  1.0000
  H   H23       1.0  0.9358  0.6089  0.0537  1.0000
  H   H24       1.0  0.9216  0.4349  0.9075000000000001  1.0000
  C   C1        1.0  0.5228  0.0409  0.3207  1.0000
  C   C2        1.0  0.5007  0.1076  0.2704  1.0000
  C   C3        1.0  0.4152  0.1421  0.2726  1.0000
  C   C4        1.0  0.3968  0.2086  0.23139999999999997  1.0000
  C   C5        1.0  0.46539999999999987  0.2402  0.1873  1.0000
  C   C6        1.0  0.5506  0.20479999999999995  0.1837  1.0000
  C   C7        1.0  0.5686  0.13909999999999997  0.2251  1.0000
  C   C8        1.0  0.4493  0.3142  0.1447  1.0000
  C   C9        1.0  0.8197  0.9450999999999999  0.45430000000000004  1.0000
  C   C10       1.0  0.9142  0.9735  0.4769  1.0000
  C   C11       1.0  0.9616  0.9351  0.532  1.0000
  C   C12       1.0  0.9529  0.0388  0.4447  1.0000
  C   C13       1.0  0.4772  0.5409  0.1793  1.0000
  C   C14       1.0  0.49929999999999997  0.6076  0.22959999999999997  1.0000
  C   C15       1.0  0.5848  0.6421  0.2274  1.0000
  C   C16       1.0  0.6032  0.7086  0.2686  1.0000
  C   C17       1.0  0.5346  0.7402  0.3127  1.0000
  C   C18       1.0  0.4494  0.7048  0.3163  1.0000
  C   C19       1.0  0.4313999999999999  0.6391  0.2749  1.0000
  C   C20       1.0  0.5507  0.8142  0.3553  1.0000
  C   C21       1.0  0.18029999999999996  0.4451  0.0457  1.0000
  C   C22       1.0  0.0858  0.4735  0.0231  1.0000
  C   C23       1.0  0.0384  0.4351  0.968  1.0000
  C   C24       1.0  0.0471  0.5388  0.055299999999999995  1.0000
  C   C25       1.0  0.4772  0.9591  0.6793  1.0000
  C   C26       1.0  0.49929999999999997  0.8923999999999997  0.7296  1.0000
  C   C27       1.0  0.5848  0.8579  0.7274  1.0000
  C   C28       1.0  0.6032  0.7914  0.7686  1.0000
  C   C29       1.0  0.5346  0.7598  0.8127  1.0000
  C   C30       1.0  0.4494  0.7952  0.8163  1.0000
  C   C31       1.0  0.4313999999999999  0.8608999999999999  0.7749  1.0000
  C   C32       1.0  0.5507  0.6858  0.8553  1.0000
  C   C33       1.0  0.18029999999999996  0.0549  0.5457  1.0000
  C   C34       1.0  0.0858  0.0265  0.5231  1.0000
  C   C35       1.0  0.0384  0.0649  0.468  1.0000
  C   C36       1.0  0.0471  0.9611999999999999  0.5553  1.0000
  C   C37       1.0  0.5228  0.45909999999999995  0.8207  1.0000
  C   C38       1.0  0.5007  0.3924  0.7704  1.0000
  C   C39       1.0  0.4152  0.3579  0.7726  1.0000
  C   C40       1.0  0.3968  0.2914  0.7314  1.0000
  C   C41       1.0  0.46539999999999987  0.2598  0.6873  1.0000
  C   C42       1.0  0.5506  0.2952  0.6837  1.0000
  C   C43       1.0  0.5686  0.3609  0.7251  1.0000
  C   C44       1.0  0.4493  0.18579999999999997  0.6447  1.0000
  C   C45       1.0  0.8197  0.5549  0.9543000000000001  1.0000
  C   C46       1.0  0.9142  0.5265  0.9769000000000001  1.0000
  C   C47       1.0  0.9616  0.5649  0.032  1.0000
  C   C48       1.0  0.9529  0.4612  0.9446999999999999  1.0000
  O   O1        1.0  0.5807  0.9602999999999999  0.4871  1.0000
  O   O2        1.0  0.4591  0.014299999999999998  0.3598  1.0000
  O   O3        1.0  0.6044  0.0159  0.32  1.0000
  O   O4        1.0  0.5156  0.3425  0.1115  1.0000
  O   O5        1.0  0.36849999999999994  0.3431  0.1472  1.0000
  O   O6        1.0  0.7814  0.9806000000000001  0.4033  1.0000
  O   O7        1.0  0.7848  0.8892999999999999  0.4875  1.0000
  O   O8        1.0  0.4192999999999999  0.4603  0.012899999999999998  1.0000
  O   O9        1.0  0.5409  0.5143  0.1402  1.0000
  O   O10       1.0  0.3956  0.5159  0.18  1.0000
  O   O11       1.0  0.4844  0.8425  0.3885  1.0000
  O   O12       1.0  0.6315  0.8431  0.3528  1.0000
  O   O13       1.0  0.2186  0.48059999999999997  0.0967  1.0000
  O   O14       1.0  0.21519999999999997  0.3893  0.0125  1.0000
  O   O15       1.0  0.4192999999999999  0.0397  0.5129  1.0000
  O   O16       1.0  0.5409  0.9857000000000001  0.6402  1.0000
  O   O17       1.0  0.3956  0.9840999999999999  0.68  1.0000
  O   O18       1.0  0.4844  0.6574999999999998  0.8885  1.0000
  O   O19       1.0  0.6315  0.6569  0.8528  1.0000
  O   O20       1.0  0.2186  0.0194  0.5967  1.0000
  O   O21       1.0  0.21519999999999997  0.1107  0.5125  1.0000
  O   O22       1.0  0.5807  0.5397  0.9871  1.0000
  O   O23       1.0  0.4591  0.4857  0.8598  1.0000
  O   O24       1.0  0.6044  0.4841  0.82  1.0000
  O   O25       1.0  0.5156  0.1575  0.6115  1.0000
  O   O26       1.0  0.36849999999999994  0.1569  0.6472  1.0000
  O   O27       1.0  0.7814  0.5194  0.9033000000000001  1.0000
  O   O28       1.0  0.7848  0.6107  0.9875  1.0000
  Zn  Zn9       1.0  0.05551  0.06052  0.9517700000000001  1.0000
  Zn  Zn10      1.0  0.84708  0.05295  0.89764  1.0000
  Zn  Zn11      1.0  0.94449  0.56052  0.54823  1.0000
  Zn  Zn12      1.0  0.15292  0.5529499999999999  0.60236  1.0000
  Zn  Zn13      1.0  0.94449  0.93948  0.04823  1.0000
  Zn  Zn14      1.0  0.15292  0.94705  0.10236  1.0000
  Zn  Zn15      1.0  0.05551  0.4394799999999999  0.45177  1.0000
  Zn  Zn16      1.0  0.84708  0.44705  0.39764  1.0000
  H   H25       1.0  0.1309  0.8792  0.802  1.0000
  H   H26       1.0  0.16119999999999998  0.7682  0.7334  1.0000
  H   H27       1.0  0.904  0.7748  0.6531  1.0000
  H   H28       1.0  0.8735  0.8841999999999998  0.7227  1.0000
  H   H29       1.0  0.5642  0.1089  0.0537  1.0000
  H   H30       1.0  0.5784  0.9349  0.9075000000000001  1.0000
  H   H31       1.0  0.8691  0.3792  0.698  1.0000
  H   H32       1.0  0.8388  0.2682  0.7666  1.0000
  H   H33       1.0  0.096  0.2748  0.8469  1.0000
  H   H34       1.0  0.1265  0.3842  0.7773  1.0000
  H   H35       1.0  0.4358  0.6089  0.4462999999999999  1.0000
  H   H36       1.0  0.4215999999999999  0.4349  0.5925  1.0000
  H   H37       1.0  0.8691  0.1208  0.198  1.0000
  H   H38       1.0  0.8388  0.2318  0.2666  1.0000
  H   H39       1.0  0.096  0.22519999999999998  0.3469  1.0000
  H   H40       1.0  0.1265  0.11579999999999999  0.2773  1.0000
  H   H41       1.0  0.4358  0.8910999999999998  0.9463  1.0000
  H   H42       1.0  0.4215999999999999  0.0651  0.0925  1.0000
  H   H43       1.0  0.1309  0.6208  0.302  1.0000
  H   H44       1.0  0.16119999999999998  0.7318  0.2334  1.0000
  H   H45       1.0  0.904  0.7252  0.1531  1.0000
  H   H46       1.0  0.8735  0.6158  0.2227  1.0000
  H   H47       1.0  0.5642  0.3911  0.5537  1.0000
  H   H48       1.0  0.5784  0.5650999999999999  0.4075  1.0000
  C   C49       1.0  0.9772  0.9591  0.8207  1.0000
  C   C50       1.0  0.9993  0.8923999999999997  0.7704  1.0000
  C   C51       1.0  0.08479999999999997  0.8579  0.7726  1.0000
  C   C52       1.0  0.1032  0.7914  0.7314  1.0000
  C   C53       1.0  0.03459999999999999  0.7598  0.6873  1.0000
  C   C54       1.0  0.9493999999999998  0.7952  0.6837  1.0000
  C   C55       1.0  0.9314  0.8608999999999999  0.7251  1.0000
  C   C56       1.0  0.0507  0.6858  0.6447  1.0000
  C   C57       1.0  0.6803  0.0549  0.9543000000000001  1.0000
  C   C58       1.0  0.5858  0.0265  0.9769000000000001  1.0000
  C   C59       1.0  0.5384  0.0649  0.032  1.0000
  C   C60       1.0  0.5471  0.9611999999999999  0.9446999999999999  1.0000
  C   C61       1.0  0.022799999999999994  0.45909999999999995  0.6793  1.0000
  C   C62       1.0  0.0007000000000000001  0.3924  0.7296  1.0000
  C   C63       1.0  0.9152  0.3579  0.7274  1.0000
  C   C64       1.0  0.8968  0.2914  0.7686  1.0000
  C   C65       1.0  0.9654  0.2598  0.8127  1.0000
  C   C66       1.0  0.0506  0.2952  0.8163  1.0000
  C   C67       1.0  0.0686  0.3609  0.7749  1.0000
  C   C68       1.0  0.9493  0.18579999999999997  0.8553  1.0000
  C   C69       1.0  0.3197  0.5549  0.5457  1.0000
  C   C70       1.0  0.4142  0.5265  0.5231  1.0000
  C   C71       1.0  0.46159999999999995  0.5649  0.468  1.0000
  C   C72       1.0  0.4529  0.4612  0.5553  1.0000
  C   C73       1.0  0.022799999999999994  0.0409  0.1793  1.0000
  C   C74       1.0  0.0007000000000000001  0.1076  0.22959999999999997  1.0000
  C   C75       1.0  0.9152  0.1421  0.2274  1.0000
  C   C76       1.0  0.8968  0.2086  0.2686  1.0000
  C   C77       1.0  0.9654  0.2402  0.3127  1.0000
  C   C78       1.0  0.0506  0.20479999999999995  0.3163  1.0000
  C   C79       1.0  0.0686  0.13909999999999997  0.2749  1.0000
  C   C80       1.0  0.9493  0.3142  0.3553  1.0000
  C   C81       1.0  0.3197  0.9450999999999999  0.0457  1.0000
  C   C82       1.0  0.4142  0.9735  0.0231  1.0000
  C   C83       1.0  0.46159999999999995  0.9351  0.968  1.0000
  C   C84       1.0  0.4529  0.0388  0.055299999999999995  1.0000
  C   C85       1.0  0.9772  0.5409  0.3207  1.0000
  C   C86       1.0  0.9993  0.6076  0.2704  1.0000
  C   C87       1.0  0.08479999999999997  0.6421  0.2726  1.0000
  C   C88       1.0  0.1032  0.7086  0.23139999999999997  1.0000
  C   C89       1.0  0.03459999999999999  0.7402  0.1873  1.0000
  C   C90       1.0  0.9493999999999998  0.7048  0.1837  1.0000
  C   C91       1.0  0.9314  0.6391  0.2251  1.0000
  C   C92       1.0  0.0507  0.8142  0.1447  1.0000
  C   C93       1.0  0.6803  0.4451  0.45430000000000004  1.0000
  C   C94       1.0  0.5858  0.4735  0.4769  1.0000
  C   C95       1.0  0.5384  0.4351  0.532  1.0000
  C   C96       1.0  0.5471  0.5388  0.4447  1.0000
  O   O29       1.0  0.9193  0.0397  0.9871  1.0000
  O   O30       1.0  0.0409  0.9857000000000001  0.8598  1.0000
  O   O31       1.0  0.8956  0.9840999999999999  0.82  1.0000
  O   O32       1.0  0.9844  0.6574999999999998  0.6115  1.0000
  O   O33       1.0  0.1315  0.6569  0.6472  1.0000
  O   O34       1.0  0.7186  0.0194  0.9033000000000001  1.0000
  O   O35       1.0  0.7152  0.1107  0.9875  1.0000
  O   O36       1.0  0.0807  0.5397  0.5129  1.0000
  O   O37       1.0  0.9590999999999998  0.4857  0.6402  1.0000
  O   O38       1.0  0.1044  0.4841  0.68  1.0000
  O   O39       1.0  0.015600000000000001  0.1575  0.8885  1.0000
  O   O40       1.0  0.8685  0.1569  0.8528  1.0000
  O   O41       1.0  0.2814  0.5194  0.5967  1.0000
  O   O42       1.0  0.2848  0.6107  0.5125  1.0000
  O   O43       1.0  0.0807  0.9602999999999999  0.012899999999999998  1.0000
  O   O44       1.0  0.9590999999999998  0.014299999999999998  0.1402  1.0000
  O   O45       1.0  0.1044  0.0159  0.18  1.0000
  O   O46       1.0  0.015600000000000001  0.3425  0.3885  1.0000
  O   O47       1.0  0.8685  0.3431  0.3528  1.0000
  O   O48       1.0  0.2814  0.9806000000000001  0.0967  1.0000
  O   O49       1.0  0.2848  0.8892999999999999  0.0125  1.0000
  O   O50       1.0  0.9193  0.4603  0.4871  1.0000
  O   O51       1.0  0.0409  0.5143  0.3598  1.0000
  O   O52       1.0  0.8956  0.5159  0.32  1.0000
  O   O53       1.0  0.9844  0.8425  0.1115  1.0000
  O   O54       1.0  0.1315  0.8431  0.1472  1.0000
  O   O55       1.0  0.7186  0.48059999999999997  0.4033  1.0000
  O   O56       1.0  0.7152  0.3893  0.4875  1.0000
