data_image0
_chemical_formula_structural       NC9NC3OH6C7H8C6NCH7Zn2C4O8
_chemical_formula_sum              "N3 C30 O9 H21 Zn2"
_cell_length_a       15.78231758774541
_cell_length_b       9.274341958901593
_cell_length_c       9.273390368590327
_cell_angle_alpha    86.13543912927544
_cell_angle_beta     90.0787864382203
_cell_angle_gamma    89.0114341261544

_space_group_name_H-M_alt    "P 1"
_space_group_IT_number       1

loop_
  _space_group_symop_operation_xyz
  'x, y, z'

loop_
  _atom_site_type_symbol
  _atom_site_label
  _atom_site_symmetry_multiplicity
  _atom_site_fract_x
  _atom_site_fract_y
  _atom_site_fract_z
  _atom_site_occupancy
  N   N1        1.0  0.7881295750718362  0.5529126896688061  0.4119709694825424  1.0000
  C   C1        1.0  0.7401739093944953  0.4620452049032282  0.43874822346883025  1.0000
  C   C2        1.0  0.6806349993868206  0.3492565731035777  0.47198569329906176  1.0000
  C   C3        1.0  0.7011962816018277  0.20757493922758743  0.5136491828487093  1.0000
  C   C4        1.0  0.624901231258513  0.13891135262077725  0.533923677506766  1.0000
  C   C5        1.0  0.5624554341939209  0.24377246396200844  0.5031337396197901  1.0000
  C   C6        1.0  0.4694874117320158  0.22438632963390878  0.5089281704900295  1.0000
  C   C7        1.0  0.4149883145372663  0.3432575960281281  0.47384076469790437  1.0000
  C   C8        1.0  0.3268826509294009  0.32736151512024514  0.4786000060193742  1.0000
  C   C9        1.0  0.27166511990712217  0.4496913053970117  0.44248256208704917  1.0000
  N   N2        1.0  0.22728322006557572  0.5480286589020409  0.413447368039191  1.0000
  C   C10       1.0  0.29259591915151584  0.19241726858304967  0.5185011308018701  1.0000
  C   C11       1.0  0.3461625242408484  0.07379181658843191  0.553520829863088  1.0000
  C   C12       1.0  0.4340852955690356  0.08925119165193629  0.548890920988959  1.0000
  O   O1        1.0  0.5981255914129775  0.3680453618152675  0.466535501117129  1.0000
  H   H1        1.0  0.7639597693989941  0.1597942096880265  0.5276431733259941  1.0000
  H   H2        1.0  0.6168852293627397  0.026009138447033123  0.5671411155408104  1.0000
  H   H3        1.0  0.4409277098883194  0.44826809171612264  0.4427853745531482  1.0000
  H   H4        1.0  0.224565019791145  0.17895408907846355  0.5225296052455448  1.0000
  H   H5        1.0  0.3194882594932476  0.9694992321437889  0.5843643793490332  1.0000
  H   H6        1.0  0.47376770939115  0.9952915769886238  0.5766381445696489  1.0000
  C   C13       1.0  0.010404404974490904  0.12686757675328564  0.41296514628293646  1.0000
  C   C14       1.0  0.020442234692169776  0.208698335974977  0.2810312449942691  1.0000
  C   C15       1.0  0.022049461940005566  0.1423386446655155  0.15046808946404044  1.0000
  C   C16       1.0  0.012727477803076148  0.9927935480554038  0.1486961056915277  1.0000
  C   C17       1.0  0.005329475527958706  0.9093142187342999  0.27957240350219403  1.0000
  C   C18       1.0  0.005016523803939465  0.9740627184393716  0.412465703589846  1.0000
  C   C19       1.0  0.01633013129058856  0.9212708717042252  0.008395816441180598  1.0000
  H   H7        1.0  0.9398419704794704  0.20935883638986882  0.7466529404008897  1.0000
  H   H8        1.0  0.025245081739227775  0.32522632774595106  0.27857004138818836  1.0000
  H   H9        1.0  0.029671059988914728  0.20806674505161804  0.050430940486066334  1.0000
  H   H10       1.0  0.0017472036329442275  0.7928305651485786  0.27772031760022653  1.0000
  H   H11       1.0  0.9608798361325177  0.6793691028768659  0.6390217882540943  1.0000
  H   H12       1.0  0.08297218125839968  0.8907318324764523  0.9850105652279111  1.0000
  H   H13       1.0  0.9916343764431746  0.995406907432593  0.918367671742927  1.0000
  H   H14       1.0  0.9772346420167273  0.822594922390267  0.0140294719803602  1.0000
  C   C20       1.0  0.007778357598817953  0.5459664077649817  0.9894724201379375  1.0000
  C   C21       1.0  0.08562451212608702  0.5422346816455241  0.0633382460073455  1.0000
  C   C22       1.0  0.16202789223831826  0.551927611978309  0.9881743280871161  1.0000
  C   C23       1.0  0.16252556565119258  0.5657214502607206  0.8365401713285348  1.0000
  C   C24       1.0  0.08521137792471117  0.567014726964292  0.7618679141402516  1.0000
  C   C25       1.0  0.0076426110415161955  0.5549639301552942  0.8359583864487963  1.0000
  N   N3        1.0  0.24035059478462883  0.5770593588226505  0.7560066060452404  1.0000
  C   C26       1.0  0.3240150785675495  0.5762988936536648  0.823275979413804  1.0000
  H   H15       1.0  0.8744698470973459  0.47816252091015987  0.2749036156605882  1.0000
  H   H16       1.0  0.22042060251696316  0.5499509414563812  0.049492397537950865  1.0000
  H   H17       1.0  0.8108750808111147  0.4450926967263153  0.7398694641054724  1.0000
  H   H18       1.0  0.23754035049076416  0.5866500425372192  0.6431158928699339  1.0000
  H   H19       1.0  0.32892606588130335  0.6687727205172642  0.8927084464849373  1.0000
  H   H20       1.0  0.33500713115007996  0.47307129800182657  0.8889254605076888  1.0000
  H   H21       1.0  0.3736050975999823  0.586651744411546  0.7385459334162379  1.0000
  Zn  Zn1       1.0  0.9148598503018779  0.5514994991415247  0.4124053447302545  1.0000
  Zn  Zn2       1.0  0.10055298932719481  0.5494302013676708  0.41302478171705403  1.0000
  C   C27       1.0  0.007702908673435707  0.5475165740237702  0.6759578023073796  1.0000
  C   C28       1.0  0.0077119471211468645  0.5534149254787859  0.14947247129329155  1.0000
  C   C29       1.0  0.006031523623203803  0.8138638163255503  0.40681666433538033  1.0000
  C   C30       1.0  0.009383279816844052  0.2870659516035987  0.4186136869166821  1.0000
  O   O2        1.0  0.07815927769279324  0.5551231351590105  0.2034050268980554  1.0000
  O   O3        1.0  0.07819238096248662  0.5442367225828701  0.6224949707902767  1.0000
  O   O4        1.0  0.07684176619288391  0.7593155156777445  0.40516159360645143  1.0000
  O   O5        1.0  0.07950982904961323  0.34004435194064064  0.42073829579807787  1.0000
  O   O6        1.0  0.9359029472114954  0.7608853492761944  0.40469183043026463  1.0000
  O   O7        1.0  0.9372535509676693  0.5458082884623663  0.6220251297437327  1.0000
  O   O8        1.0  0.9372204483519476  0.556694632351326  0.20293345303981103  1.0000
  O   O9        1.0  0.9385709997535867  0.3416158399640905  0.42026683000467124  1.0000
