data_image0
_chemical_formula_structural       NC9NC3OH6C6NCOH7C6FH3Zn2C4O8
_chemical_formula_sum              "N3 C29 O10 H16 F1 Zn2"
_cell_length_a       15.78231758774541
_cell_length_b       10.299619329790078
_cell_length_c       9.275646106892308
_cell_angle_alpha    84.95826498639607
_cell_angle_beta     90.10253560025424
_cell_angle_gamma    89.65730562172187

_space_group_name_H-M_alt    "P 1"
_space_group_IT_number       1

loop_
  _space_group_symop_operation_xyz
  'x, y, z'

loop_
  _atom_site_type_symbol
  _atom_site_label
  _atom_site_symmetry_multiplicity
  _atom_site_fract_x
  _atom_site_fract_y
  _atom_site_fract_z
  _atom_site_occupancy
  N   N1        1.0  0.7979094908170228  0.4285101425485782  0.4108203679427504  1.0000
  C   C1        1.0  0.7493603857370152  0.3461903413560548  0.4375720875672466  1.0000
  C   C2        1.0  0.689084873334007  0.24401145470464014  0.4707778635965609  1.0000
  C   C3        1.0  0.7087208298199679  0.11565915379038395  0.512401416250376  1.0000
  C   C4        1.0  0.6319773627187024  0.05345380951310297  0.5326566726901831  1.0000
  C   C5        1.0  0.5702164304884988  0.14844876189350287  0.5018963573315707  1.0000
  C   C6        1.0  0.4771218267606241  0.1308846687504193  0.5076854551768317  1.0000
  C   C7        1.0  0.4233990381670915  0.23857511348271565  0.4726313717543529  1.0000
  C   C8        1.0  0.3351895840595417  0.22417290185462327  0.47738625133855717  1.0000
  C   C9        1.0  0.280770945165649  0.33499674385523753  0.441303086391636  1.0000
  N   N2        1.0  0.23703125096615818  0.4240848283300691  0.41229544620885594  1.0000
  C   C10       1.0  0.30002159863500066  0.10191994171299236  0.5172496456008937  1.0000
  C   C11       1.0  0.35281350200784667  0.9944520974974378  0.5522360980097782  1.0000
  C   C12       1.0  0.4408372119929225  0.00845867082976493  0.5476104290569048  1.0000
  O   O1        1.0  0.6066981993175923  0.26103116756818984  0.4653330727314662  1.0000
  H   H1        1.0  0.7711722425456639  0.0723746954523319  0.5263818589309492  1.0000
  H   H2        1.0  0.6232239995132886  0.9511730508486828  0.5658423098934398  1.0000
  H   H3        1.0  0.4500242030678396  0.3337096440391014  0.4416053352493103  1.0000
  H   H4        1.0  0.2319027931950206  0.08972203952459877  0.5212744225553014  1.0000
  H   H5        1.0  0.32545815617069235  0.8999679514485857  0.5830504951961761  1.0000
  H   H6        1.0  0.479906011074284  0.9233364820136  0.5753313318689159  1.0000
  C   C13       1.0  0.017362021687314932  0.044930459938921315  0.4115199609800435  1.0000
  C   C14       1.0  0.9764623844779456  0.054729564722493684  0.27630023311728835  1.0000
  C   C15       1.0  0.95711781470224  0.9429355903641236  0.2071719840875823  1.0000
  C   C16       1.0  0.9767147482528787  0.8195674986820292  0.27641218936099987  1.0000
  C   C17       1.0  0.017586773536808247  0.8076543674756974  0.4116083727603503  1.0000
  C   C18       1.0  0.037979356949415316  0.9209656075641586  0.47812620935596684  1.0000
  N   N3        1.0  0.9140895258412246  0.956763615285344  0.06980939079173432  1.0000
  C   C19       1.0  0.927386178437374  0.8730403257546865  0.9562900257844036  1.0000
  O   O2        1.0  0.9868734030814267  0.790658244019545  0.9625574524495861  1.0000
  H   H7        1.0  0.09370633928199679  0.23364936731914443  0.6672960174931857  1.0000
  H   H8        1.0  0.9600303513316942  0.14950464514840434  0.22334561867753933  1.0000
  H   H9        1.0  0.9585846945173048  0.7328355960852259  0.22642565901560707  1.0000
  H   H10       1.0  0.06951839116024905  0.912536032551648  0.582357520061342  1.0000
  H   H11       1.0  0.03213871267143343  0.47556468058611523  0.4645199712748623  1.0000
  H   H12       1.0  0.8748639290280827  0.03798461806335807  0.04630213984486997  1.0000
  H   H13       1.0  0.8871402088264035  0.8832253365902745  0.8613761104026761  1.0000
  C   C20       1.0  0.01737699745112442  0.43035815694115415  0.9877238478165418  1.0000
  C   C21       1.0  0.09496363975422084  0.44314952523513657  0.06004688302164362  1.0000
  C   C22       1.0  0.17149641504995727  0.4437573237197892  0.9848583068231309  1.0000
  C   C23       1.0  0.17178659642498628  0.4314540823162485  0.8364816138898846  1.0000
  C   C24       1.0  0.0955283556459483  0.42081470564269696  0.7622313306988406  1.0000
  C   C25       1.0  0.01757179603490533  0.4222266567297693  0.8354044511504526  1.0000
  F   F1        1.0  0.2457018970489876  0.4547344544652337  0.05654413301624949  1.0000
  H   H14       1.0  0.8208691210283479  0.3268295329988018  0.10020453888103065  1.0000
  H   H15       1.0  0.23120463481513476  0.43139858961718774  0.778365906452362  1.0000
  H   H16       1.0  0.8845374770237011  0.35787459757605183  0.5601042712761068  1.0000
  Zn  Zn1       1.0  0.9246305424906264  0.42722954361086923  0.411254371246061  1.0000
  Zn  Zn2       1.0  0.11031017038795782  0.42535471467237307  0.4118732402895049  1.0000
  C   C26       1.0  0.017531585139753503  0.41859003640193615  0.6751740627436863  1.0000
  C   C27       1.0  0.017411155870069348  0.43399583866036756  0.14795369740161646  1.0000
  C   C28       1.0  0.017538632432027013  0.663538503039899  0.40584011306396217  1.0000
  C   C29       1.0  0.017404044776168078  0.18904581162954834  0.4172877236387984  1.0000
  O   O3        1.0  0.08788706918728656  0.43449952435265  0.20196315556032984  1.0000
  O   O4        1.0  0.08798221267824942  0.41666242319408237  0.6216338962761341  1.0000
  O   O5        1.0  0.0879869539063167  0.6144614029952378  0.4041448233178113  1.0000
  O   O6        1.0  0.08788226457720523  0.23670055551952784  0.41945212008969257  1.0000
  O   O7        1.0  0.9470583849380334  0.6158837034049882  0.40367549122709234  1.0000
  O   O8        1.0  0.9470536441482486  0.41808628463796293  0.6211644874091757  1.0000
  O   O9        1.0  0.9469585003014643  0.4359233571862655  0.20149201140126216  1.0000
  O   O10       1.0  0.9469536957100515  0.23812437802638423  0.41898108414080415  1.0000
