data_image0
_chemical_formula_structural       NC9NC3SH6C9H10C6NCOCH9Zn2C4O8
_chemical_formula_sum              "N3 C33 S1 H25 O9 Zn2"
_cell_length_a       16.77567553997237
_cell_length_b       9.272676604525723
_cell_length_c       10.300272075376753
_cell_angle_alpha    85.79057383563607
_cell_angle_beta     90.39584268328142
_cell_angle_gamma    91.44448428757873

_space_group_name_H-M_alt    "P 1"
_space_group_IT_number       1

loop_
  _space_group_symop_operation_xyz
  'x, y, z'

loop_
  _atom_site_type_symbol
  _atom_site_label
  _atom_site_symmetry_multiplicity
  _atom_site_fract_x
  _atom_site_fract_y
  _atom_site_fract_z
  _atom_site_occupancy
  N   N1        1.0  0.7592572386592655  0.5996353524213547  0.5809765098943733  1.0000
  C   C1        1.0  0.7048014392549768  0.6544069217464863  0.6228000447393388  1.0000
  C   C2        1.0  0.6372209734524039  0.7223748181403123  0.6746998538850113  1.0000
  C   C3        1.0  0.6398793273860661  0.8201796097641234  0.770153300307854  1.0000
  C   C4        1.0  0.5645004938228417  0.8684520931034743  0.8018625456912107  1.0000
  C   C5        1.0  0.5021756606307457  0.8084494008379415  0.7310035126215129  1.0000
  C   C6        1.0  0.4158398983721098  0.8373940784543837  0.7419731971400461  1.0000
  C   C7        1.0  0.35855011787324964  0.7490197846907198  0.6833249659967409  1.0000
  C   C8        1.0  0.27705210545630105  0.7757319312334037  0.693228895324676  1.0000
  C   C9        1.0  0.2190789933207442  0.6843942759161927  0.6331731974754258  1.0000
  N   N2        1.0  0.17248570462920557  0.6109718899414361  0.5848972879747665  1.0000
  C   C10       1.0  0.25201591016610153  0.8911666438152708  0.761621369436389  1.0000
  C   C11       1.0  0.3082149831661807  0.9797174490082722  0.8198087349178153  1.0000
  C   C12       1.0  0.3895574996266207  0.9534086451363115  0.8102010505193892  1.0000
  S   S1        1.0  0.5421536383871809  0.6950996239954448  0.629430240511845  1.0000
  H   H1        1.0  0.6944716565582248  0.8555513094678621  0.8160660701687166  1.0000
  H   H2        1.0  0.5566390245305034  0.9438416142785901  0.8756541778485553  1.0000
  H   H3        1.0  0.3768641198602514  0.6587442395998915  0.6305067842603931  1.0000
  H   H4        1.0  0.1891473967242543  0.9127756468187577  0.7697979460314344  1.0000
  H   H5        1.0  0.2887166953344652  0.06931391225279483  0.8723066575559626  1.0000
  H   H6        1.0  0.4313820762763471  0.02518641211350392  0.8552538202275641  1.0000
  C   C13       1.0  0.9636160728638279  0.18175376374059463  0.5812565974299166  1.0000
  C   C14       1.0  0.9316924004386833  0.24495024646859886  0.6885027811212363  1.0000
  C   C15       1.0  0.9070639058282202  0.16011006262585692  0.7989919669399507  1.0000
  C   C16       1.0  0.9135643149987256  0.00953739645813157  0.80595318430896  1.0000
  C   C17       1.0  0.9441816334990103  0.9448556578089209  0.6976940897633659  1.0000
  C   C18       1.0  0.9681344678684997  0.02884259724361437  0.5846285059883813  1.0000
  C   C19       1.0  0.8860841137464592  0.9251365968907721  0.9304380678771873  1.0000
  C   C20       1.0  0.8457856655101295  0.7779397990114284  0.9171260099298975  1.0000
  C   C21       1.0  0.9299783183636772  0.7876794348313361  0.9728719846466604  1.0000
  H   H7        1.0  0.9813345564203438  0.4811179956363964  0.36862604333445215  1.0000
  H   H8        1.0  0.927485109967195  0.36135738074563645  0.6883380243731518  1.0000
  H   H9        1.0  0.8834379536478328  0.21288836982813744  0.8803619133620656  1.0000
  H   H10       1.0  0.9479854859055359  0.8285593779269201  0.6989360664657025  1.0000
  H   H11       1.0  0.9888422632747724  0.9526731444477524  0.26685440143626765  1.0000
  H   H12       1.0  0.8635078854684374  0.9846201234223226  0.011987064666725502  1.0000
  H   H13       1.0  0.8420907743165781  0.7386124435240761  0.8180925251202525  1.0000
  H   H14       1.0  0.799570205589563  0.7478712963675898  0.9916051499213904  1.0000
  H   H15       1.0  0.977401672072445  0.7541392240668725  0.9077776485259763  1.0000
  H   H16       1.0  0.9329673611334651  0.763297164475693  0.07994910050147663  1.0000
  C   C22       1.0  0.9658825790904992  0.6054448397035568  0.20159045784020854  1.0000
  C   C23       1.0  0.8844602887368173  0.6373256398470952  0.19751292820396243  1.0000
  C   C24       1.0  0.8436824833894818  0.6553455521183313  0.07805370430778179  1.0000
  C   C25       1.0  0.884466594104852  0.6369970223406964  0.9623777367763084  1.0000
  C   C26       1.0  0.9658679584973177  0.6051514867613117  0.9642946617311882  1.0000
  C   C27       1.0  0.006216829843842529  0.5900829346712324  0.0844041677196925  1.0000
  N   N3        1.0  0.7600281864450475  0.685754786611159  0.0724068600845107  1.0000
  C   C28       1.0  0.7209253488577262  0.7744546517513924  0.1598406296588417  1.0000
  O   O1        1.0  0.7609146295133925  0.8526831737006935  0.23278600946996894  1.0000
  C   C29       1.0  0.6320985202562145  0.7826246384098166  0.15792707986423268  1.0000
  H   H17       1.0  0.9965663267509527  0.591240197336839  0.5306996635469118  1.0000
  H   H18       1.0  0.8524092346289557  0.6453020084576915  0.28738676683972564  1.0000
  H   H19       1.0  0.8523781526528423  0.6489283183766481  0.8707543784037112  1.0000
  H   H20       1.0  0.06902042396322372  0.5655334243678989  0.0867376446007373  1.0000
  H   H21       1.0  0.9964371520960101  0.590965496952206  0.6377497674208352  1.0000
  H   H22       1.0  0.7265222066035729  0.6488716340220066  0.9949908030560163  1.0000
  H   H23       1.0  0.6050469488400786  0.6741103154105623  0.1448710362934593  1.0000
  H   H24       1.0  0.6104569128750735  0.8205514317463347  0.25091823525839896  1.0000
  H   H25       1.0  0.6133521445315941  0.859183586272551  0.07618969510713301  1.0000
  Zn  Zn1       1.0  0.8785060299013641  0.6029029785291216  0.5821154536695194  1.0000
  Zn  Zn2       1.0  0.0532368454567671  0.6076924935996256  0.5837689620079565  1.0000
  C   C30       1.0  0.9658382739737009  0.5994610174000841  0.8201043209292807  1.0000
  C   C31       1.0  0.9659065191441689  0.6111363268390031  0.3457802475093459  1.0000
  C   C32       1.0  0.9672763681872496  0.86872666505804  0.5788161486544943  1.0000
  C   C33       1.0  0.9644683560627096  0.34186894464129836  0.5870684815576419  1.0000
  O   O2        1.0  0.03222395396723732  0.614857745525587  0.39479913086210794  1.0000
  O   O3        1.0  0.032137479364664934  0.5993736418898863  0.7723400339850856  1.0000
  O   O4        1.0  0.03329786472047581  0.8168090326812343  0.57749812522995  1.0000
  O   O5        1.0  0.03106350904454013  0.397422363455108  0.5896409417237127  1.0000
  O   O6        1.0  0.9006793066865475  0.8131731070407857  0.5762434733826772  1.0000
  O   O7        1.0  0.8995189305716045  0.5957394491563337  0.771085319793218  1.0000
  O   O8        1.0  0.8996054049890928  0.6112235031324408  0.3935428551388866  1.0000
  O   O9        1.0  0.8984449600062386  0.3937881107082388  0.5883847633229369  1.0000
