data_image0
_chemical_formula_structural       NC9NC3OH6C6OCH8C6FH3Zn2C4O8
_chemical_formula_sum              "N2 C29 O10 H17 F1 Zn2"
_cell_length_a       15.78231758774541
_cell_length_b       9.273888216677433
_cell_length_c       9.275646106892305
_cell_angle_alpha    85.15247369162395
_cell_angle_beta     90.10253560025424
_cell_angle_gamma    89.05820199757645

_space_group_name_H-M_alt    "P 1"
_space_group_IT_number       1

loop_
  _space_group_symop_operation_xyz
  'x, y, z'

loop_
  _atom_site_type_symbol
  _atom_site_label
  _atom_site_symmetry_multiplicity
  _atom_site_fract_x
  _atom_site_fract_y
  _atom_site_fract_z
  _atom_site_occupancy
  N   N1        1.0  0.7881704911772174  0.5862339143322248  0.41617055895181543  1.0000
  C   C1        1.0  0.7401826089337058  0.49482507054221553  0.442613966687519  1.0000
  C   C2        1.0  0.680603710513793  0.3813644723234173  0.4754370527068741  1.0000
  C   C3        1.0  0.7011147206484055  0.23884061713430718  0.5165798882093786  1.0000
  C   C4        1.0  0.6247953442185777  0.16976709514356014  0.5366021673228405  1.0000
  C   C5        1.0  0.5623867751397026  0.2752505710167743  0.5061976360255334  1.0000
  C   C6        1.0  0.46941191623666245  0.2557472021654037  0.5119209511714509  1.0000
  C   C7        1.0  0.4149549381045194  0.3753278971817704  0.47727020016643834  1.0000
  C   C8        1.0  0.32684367240297396  0.35933551753712084  0.4819711392283681  1.0000
  C   C9        1.0  0.2716694817456197  0.4823955725286393  0.4463030421940932  1.0000
  N   N2        1.0  0.2273224213141585  0.5813199950775443  0.41762906311344666  1.0000
  C   C10       1.0  0.2925091578088607  0.22358443973364905  0.5213766601661134  1.0000
  C   C11       1.0  0.34603373312076546  0.10425092286358038  0.5559606138619961  1.0000
  C   C12       1.0  0.43396195200040555  0.1198039812434668  0.5513874036495117  1.0000
  O   O1        1.0  0.598101003035305  0.40026335511902306  0.4700560056767211  1.0000
  H   H1        1.0  0.7638612291606884  0.19077706215189472  0.5303982178513847  1.0000
  H   H2        1.0  0.6167392895181041  0.056193377082530915  0.5694047329754599  1.0000
  H   H3        1.0  0.4409315145695081  0.48096636224956996  0.44660047048405893  1.0000
  H   H4        1.0  0.22447351269199  0.21003975036909314  0.5253557523860035  1.0000
  H   H5        1.0  0.3193225416630088  0.9993346521523193  0.5864211401071713  1.0000
  H   H6        1.0  0.4736110794543333  0.025283334353625172  0.578789498806112  1.0000
  C   C13       1.0  0.010238111908970286  0.16030267080691843  0.41543353315943965  1.0000
  C   C14       1.0  0.990412537123713  0.245160041588987  0.2864572017530118  1.0000
  C   C15       1.0  0.9633797915382828  0.182050340218928  0.16311915081712192  1.0000
  C   C16       1.0  0.9560157730797454  0.031096494912284514  0.16829342869898567  1.0000
  C   C17       1.0  0.9767272511675402  0.9450636705002748  0.2944965180608663  1.0000
  C   C18       1.0  0.005262935616225924  0.007239937854784504  0.41837854359574944  1.0000
  O   O2        1.0  0.9440690437324724  0.2730238675352302  0.03838762029681075  1.0000
  C   C19       1.0  0.9157485385469454  0.2238305052082457  0.9054759610712266  1.0000
  H   H7        1.0  0.017244414360731528  0.23312675524505133  0.770621237637169  1.0000
  H   H8        1.0  0.9939901455022496  0.36204113380123726  0.28219120795895636  1.0000
  H   H9        1.0  0.935072906059113  0.978887867705612  0.07488209220399122  1.0000
  H   H10       1.0  0.9723238657181853  0.8286496413875735  0.2940013163430999  1.0000
  H   H11       1.0  0.013532232820682388  0.7056800186261566  0.6566229368066923  1.0000
  H   H12       1.0  0.8549463800683523  0.1662097091304555  0.9219073286640072  1.0000
  H   H13       1.0  0.9643845673478721  0.15113882953781563  0.8623613084552559  1.0000
  H   H14       1.0  0.9054192967983802  0.31848119781326223  0.8256489714974715  1.0000
  C   C20       1.0  0.007625398802767243  0.5882859705384538  0.993080960183526  1.0000
  C   C21       1.0  0.08512483477284721  0.6024896514184719  0.06545190282841551  1.0000
  C   C22       1.0  0.1616534663463608  0.6031645577707049  0.9902656030141516  1.0000
  C   C23       1.0  0.16202752620431382  0.5895028985432142  0.8418428308200174  1.0000
  C   C24       1.0  0.08584182035695327  0.5776888136415608  0.7675527000313074  1.0000
  C   C25       1.0  0.007875634639158633  0.5792566601923008  0.8407311086553921  1.0000
  F   F1        1.0  0.23578411074417904  0.6153536886363901  0.061992541793362665  1.0000
  H   H15       1.0  0.811823338321545  0.47332660867594445  0.10517390607456445  1.0000
  H   H16       1.0  0.22144594292105546  0.5894412788188415  0.7837269155460005  1.0000
  H   H17       1.0  0.8752800417260416  0.507799401579754  0.5651899113755379  1.0000
  Zn  Zn1       1.0  0.9149002734521815  0.584811922702521  0.41659976603512083  1.0000
  Zn  Zn2       1.0  0.10059268316870518  0.5827300913194344  0.4172116132922776  1.0000
  C   C26       1.0  0.007860216738475808  0.5752185156067349  0.6804871000349477  1.0000
  C   C27       1.0  0.007634756991109489  0.5923252937050842  0.15332443395750062  1.0000
  C   C28       1.0  0.006197305269307398  0.8472120797207532  0.4120705544707819  1.0000
  C   C29       1.0  0.009297615296772314  0.32032999691308595  0.4217410502349941  1.0000
  O   O3        1.0  0.07810723638466772  0.5928845920281867  0.20733577856740681  1.0000
  O   O4        1.0  0.07832398595778868  0.5730780719704318  0.6269397140884809  1.0000
  O   O5        1.0  0.07698021439923997  0.792716309484897  0.4101914565376332  1.0000
  O   O6        1.0  0.07945094448642614  0.37324636669275013  0.4240839277303725  1.0000
  O   O7        1.0  0.936041948766743  0.7942956480412828  0.4097274513806461  1.0000
  O   O8        1.0  0.9373857101210796  0.5746591439168753  0.6264756380017871  1.0000
  O   O9        1.0  0.93716896038719  0.5944656322054662  0.20686996708144934  1.0000
  O   O10       1.0  0.938512668578021  0.37482739540307897  0.4236182244159181  1.0000
