data_image0
_chemical_formula_structural       NC9NC3OH6C8H10C6BrH5Zn2C4O8
_chemical_formula_sum              "N2 C30 O9 H21 Br1 Zn2"
_cell_length_a       15.78231758774541
_cell_length_b       9.275653711864159
_cell_length_c       10.302972455390005
_cell_angle_alpha    85.74330901256306
_cell_angle_beta     90.08385913268748
_cell_angle_gamma    89.08352321082864

_space_group_name_H-M_alt    "P 1"
_space_group_IT_number       1

loop_
  _space_group_symop_operation_xyz
  'x, y, z'

loop_
  _atom_site_type_symbol
  _atom_site_label
  _atom_site_symmetry_multiplicity
  _atom_site_fract_x
  _atom_site_fract_y
  _atom_site_fract_z
  _atom_site_occupancy
  N   N1        1.0  0.7890448819064961  0.5690876215945461  0.5748764190412944  1.0000
  C   C1        1.0  0.7410255688076218  0.4779764269921382  0.5986876582982863  1.0000
  C   C2        1.0  0.6814076569413087  0.3648852879129607  0.6282435443086136  1.0000
  C   C3        1.0  0.7018696859506185  0.2228245928837862  0.6652911167363194  1.0000
  C   C4        1.0  0.625526546893614  0.15397641897820888  0.6833203469055372  1.0000
  C   C5        1.0  0.5631542159113462  0.2591175920029909  0.6559421697589745  1.0000
  C   C6        1.0  0.47017262703424945  0.23967859605083452  0.6610957119473453  1.0000
  C   C7        1.0  0.4157567834653244  0.35886929422677144  0.6298941396373112  1.0000
  C   C8        1.0  0.3276399969973377  0.34292978358495935  0.6341270789929089  1.0000
  C   C9        1.0  0.2725081404398916  0.4655883969539367  0.6020094370673837  1.0000
  N   N2        1.0  0.2281951115852921  0.5641900969893385  0.5761897095859879  1.0000
  C   C10       1.0  0.2932587651839777  0.20762217613398937  0.6696100610361664  1.0000
  C   C11       1.0  0.34674228954787545  0.08867790137640941  0.7007514806174433  1.0000
  C   C12       1.0  0.43467587794689116  0.10417952809300222  0.6966335554244469  1.0000
  O   O1        1.0  0.5989114226332757  0.38372354900880845  0.6233980444366669  1.0000
  H   H1        1.0  0.7645996929514779  0.17491663016130252  0.6777340544699605  1.0000
  H   H2        1.0  0.6174314554206585  0.04077196132988579  0.7128578049304739  1.0000
  H   H3        1.0  0.44176971575944557  0.46416260483205757  0.6022773679364597  1.0000
  H   H4        1.0  0.22521844496113666  0.19412223894018601  0.6731930188257527  1.0000
  H   H5        1.0  0.3199949906693423  0.9841044304871774  0.7281798731889251  1.0000
  H   H6        1.0  0.47429248745267844  0.009967286030808422  0.7213079999695062  1.0000
  C   C13       1.0  0.01100229377578188  0.14322316496862814  0.5743286691437399  1.0000
  C   C14       1.0  0.9911153974880563  0.2268509067992417  0.4584834780130827  1.0000
  C   C15       1.0  0.9635882258906266  0.1619308942386979  0.3476398572153146  1.0000
  C   C16       1.0  0.9572084190602442  0.011408324464222241  0.35176902254060627  1.0000
  C   C17       1.0  0.9780097550618426  0.926582919267042  0.46511499181627425  1.0000
  C   C18       1.0  0.0062458385106680565  0.9900433536333834  0.5767486360364301  1.0000
  C   C19       1.0  0.9437411040604797  0.25294037322950014  0.22388125204357848  1.0000
  C   C20       1.0  0.0230065781866362  0.2738953354350879  0.1405735027095909  1.0000
  H   H7        1.0  0.08792244324464943  0.40690921301192645  0.7545032760958961  1.0000
  H   H8        1.0  0.9951726925565582  0.3436243455191128  0.4549979636054642  1.0000
  H   H9        1.0  0.9369172150630773  0.9593937812039754  0.2665517443507644  1.0000
  H   H10       1.0  0.9740912095059252  0.8101555017116302  0.464310803281627  1.0000
  H   H11       1.0  0.014219537963153778  0.6908472116392067  0.7908600784439669  1.0000
  H   H12       1.0  0.8943414558392254  0.20061090141688376  0.1672800050240322  1.0000
  H   H13       1.0  0.9180247200898565  0.3603905635166438  0.2468153471732131  1.0000
  H   H14       1.0  0.07238775351039073  0.329541083056363  0.19432007471522897  1.0000
  H   H15       1.0  0.0484411424560904  0.16770518501238807  0.11393539248390507  1.0000
  H   H16       1.0  0.00702531690246699  0.3411326066821634  0.04991415715790582  1.0000
  C   C21       1.0  0.00862404401462946  0.566633266699486  0.1942961142234665  1.0000
  C   C22       1.0  0.03414899748147793  0.42047173606115135  0.2029041490582564  1.0000
  C   C23       1.0  0.04681079885508785  0.3479677248553392  0.09023636402015867  1.0000
  C   C24       1.0  0.034149140617787184  0.4204716781910587  0.9678217587232081  1.0000
  C   C25       1.0  0.00862408408437454  0.5666332701982446  0.9567811964291334  1.0000
  C   C26       1.0  0.99598482468057  0.6390081867023552  0.07067395636212326  1.0000
  Br  Br1       1.0  0.08152895951249373  0.14916278184949117  0.10359916645907276  1.0000
  H   H17       1.0  0.9990170310425355  0.6216473446893592  0.5183576772447367  1.0000
  H   H18       1.0  0.04430988797966151  0.36228750677035904  0.2968143229403435  1.0000
  H   H19       1.0  0.04431022254135231  0.36228755133921514  0.8817334214503553  1.0000
  H   H20       1.0  0.9762989581034885  0.7517335643818843  0.06309705298476344  1.0000
  H   H21       1.0  0.9990158431687867  0.6216468165702628  0.6253240481495048  1.0000
  Zn  Zn1       1.0  0.9157741700130188  0.567670450347125  0.5752628863010602  1.0000
  Zn  Zn2       1.0  0.10146586108622152  0.5655955001523256  0.5758138214975754  1.0000
  C   C27       1.0  0.008654458602663118  0.5608892162904796  0.8126387845109391  1.0000
  C   C28       1.0  0.008587590025483694  0.5723785308314799  0.3384380619271406  1.0000
  C   C29       1.0  0.007140554586380299  0.8299763889678025  0.5711177616652567  1.0000
  C   C30       1.0  0.010101440408378348  0.30328962653291813  0.5799591488499681  1.0000
  O   O2        1.0  0.07904442008774243  0.573512970771052  0.3870224753889647  1.0000
  O   O3        1.0  0.07913333156132962  0.5581788494251207  0.7644721412848572  1.0000
  O   O4        1.0  0.07790988496612705  0.7754701550488304  0.5694422080015883  1.0000
  O   O5        1.0  0.08026780326100819  0.3562216761698686  0.5820523111713098  1.0000
  O   O6        1.0  0.9369721644707626  0.7770442750392302  0.5690243964324937  1.0000
  O   O7        1.0  0.9381956013318841  0.5597547017464082  0.7640542654437873  1.0000
  O   O8        1.0  0.9381066901967675  0.5750887728461361  0.3866030385211448  1.0000
  O   O9        1.0  0.9393300734245008  0.3577974679320748  0.5816329716095829  1.0000
