data_image0
_chemical_formula_structural       NC5NC3BrH3C7NH5C6OCH7Zn2C4O8
_chemical_formula_sum              "N3 C26 Br1 H15 O9 Zn2"
_cell_length_a       13.839083392302014
_cell_length_b       9.275154477615127
_cell_length_c       9.273891588657152
_cell_angle_alpha    86.29931945807607
_cell_angle_beta     89.68090098130043
_cell_angle_gamma    89.45968127068964

_space_group_name_H-M_alt    "P 1"
_space_group_IT_number       1

loop_
  _space_group_symop_operation_xyz
  'x, y, z'

loop_
  _atom_site_type_symbol
  _atom_site_label
  _atom_site_symmetry_multiplicity
  _atom_site_fract_x
  _atom_site_fract_y
  _atom_site_fract_z
  _atom_site_occupancy
  N   N1        1.0  0.9054625578136194  0.5642145387624977  0.4162591702948233  1.0000
  C   C1        1.0  0.8338729822308965  0.5006015956606558  0.41847120548335615  1.0000
  C   C2        1.0  0.7446775615622495  0.42144509889529846  0.4212235843601205  1.0000
  C   C3        1.0  0.6566265497710027  0.4976108372123716  0.41857539247871217  1.0000
  C   C4        1.0  0.5690648346429983  0.42291715899014753  0.4211723425819933  1.0000
  C   C5        1.0  0.4787961420930281  0.5014332346446728  0.4184422713742366  1.0000
  N   N2        1.0  0.40623180150048904  0.5645540023177953  0.41624731109943736  1.0000
  C   C6        1.0  0.569490319756587  0.2717463800735549  0.4264283582747459  1.0000
  C   C7        1.0  0.6570970730298659  0.19545942777286385  0.4290806732629655  1.0000
  C   C8        1.0  0.7448594504047318  0.26943930282427675  0.426508561368431  1.0000
  Br  Br1       1.0  0.8629767931809195  0.15939842537358873  0.4303346314989738  1.0000
  H   H1        1.0  0.6562417451133786  0.6147553949425997  0.41450222573485695  1.0000
  H   H2        1.0  0.5021777591377328  0.21292022769048868  0.42847340099803266  1.0000
  H   H3        1.0  0.6567170648423647  0.07856396104122765  0.43314480195210914  1.0000
  C   C9        1.0  0.15865430979252748  0.14098181677369648  0.41458518215494716  1.0000
  C   C10       1.0  0.13261414987035147  0.22299673186942817  0.287494639535234  1.0000
  C   C11       1.0  0.0986888181419685  0.15584952520563355  0.16713649129021424  1.0000
  C   C12       1.0  0.09024290643820355  0.005771220763239658  0.1724514112983675  1.0000
  C   C13       1.0  0.11718964341477212  0.9225231111671813  0.2966449907710038  1.0000
  C   C14       1.0  0.15304932472073138  0.9877757429650399  0.417933791072413  1.0000
  C   C15       1.0  0.07136893712877046  0.24143156663236942  0.0385141990372051  1.0000
  N   N3        1.0  0.04941134123168012  0.3102239242606377  0.9351348223557161  1.0000
  H   H4        1.0  0.17604572476921287  0.22085655341391708  0.7684046035556655  1.0000
  H   H5        1.0  0.13657658948027818  0.339920235025442  0.28321762970168884  1.0000
  H   H6        1.0  0.06365428766014801  0.9527921276576523  0.07994862744258358  1.0000
  H   H7        1.0  0.11211613982637438  0.8060509317225499  0.29651825652533437  1.0000
  H   H8        1.0  0.16886432442449895  0.6911548750482568  0.6550027693638074  1.0000
  C   C16       1.0  0.15746005835435395  0.5605612659437305  0.9929689952336008  1.0000
  C   C17       1.0  0.2361886211853064  0.621514273131736  0.06178164799682939  1.0000
  C   C18       1.0  0.3093649374933932  0.6932299776879891  0.9822535589430071  1.0000
  C   C19       1.0  0.30407366613550924  0.7043541395902104  0.8308570727280357  1.0000
  C   C20       1.0  0.22738093559224476  0.6425294843433401  0.760698721859114  1.0000
  C   C21       1.0  0.15424354987415856  0.5681962169088899  0.8395499108238429  1.0000
  O   O1        1.0  0.38546638936961664  0.7524059802738006  0.05769216182429427  1.0000
  C   C22       1.0  0.46453462785350297  0.8283403440382389  0.9909139740274857  1.0000
  H   H9        1.0  0.9282094840588803  0.47184947330300425  0.10364147417694736  1.0000
  H   H10       1.0  0.3593718670992822  0.7594491938520871  0.7661513416661876  1.0000
  H   H11       1.0  0.22655207843982805  0.6499599205604965  0.6436469491416408  1.0000
  H   H12       1.0  0.0014054184916378865  0.5027556049204731  0.563852513335096  1.0000
  H   H13       1.0  0.43795100931073705  0.9258922826287257  0.9269048373724931  1.0000
  H   H14       1.0  0.5052980064816692  0.756810097173211  0.92021738775441  1.0000
  H   H15       1.0  0.5137693669107881  0.8628372184823629  0.07589263327322748  1.0000
  Zn  Zn1       1.0  0.04997374121926401  0.5643087100278645  0.4162640631823493  1.0000
  Zn  Zn2       1.0  0.2617206435139663  0.5644481199500873  0.41625420094216525  1.0000
  C   C23       1.0  0.15488741836661887  0.5610091798105601  0.6795052951992229  1.0000
  C   C24       1.0  0.15680926605709256  0.567749472190032  0.15301311748960256  1.0000
  C   C25       1.0  0.15412563234961918  0.8276618393267416  0.41155675054138363  1.0000
  C   C26       1.0  0.15757099099375016  0.30109508104392657  0.4209617321503001  1.0000
  O   O2        1.0  0.236947741744983  0.5702085150043028  0.20672161939706157  1.0000
  O   O3        1.0  0.2354599508067212  0.5586548544541392  0.62578888883779  1.0000
  O   O4        1.0  0.23484371002058113  0.773980262100719  0.40941854922502824  1.0000
  O   O5        1.0  0.23756391061861004  0.3548831166495996  0.4230918509755053  1.0000
  O   O6        1.0  0.07413040185581309  0.7738737132822799  0.4094264131447983  1.0000
  O   O7        1.0  0.07474663146348838  0.5585500372195505  0.6257966827504924  1.0000
  O   O8        1.0  0.07623442938305547  0.570103631896169  0.20672768007515233  1.0000
  O   O9        1.0  0.07685059791038817  0.3547782242035169  0.4230980196837049  1.0000
