data_image0
_chemical_formula_structural       NC8ONC5NC3OH9C7ClCClC6H10C6N2C6H10Zn2C4O8
_chemical_formula_sum              "N5 C46 O10 H29 Cl2 Zn2"
_cell_length_a       21.006696871193384
_cell_length_b       17.25489619101054
_cell_length_c       17.11554023763703
_cell_angle_alpha    85.12914795906123
_cell_angle_beta     90.46767835097768
_cell_angle_gamma    91.02453107224584

_space_group_name_H-M_alt    "P 1"
_space_group_IT_number       1

loop_
  _space_group_symop_operation_xyz
  'x, y, z'

loop_
  _atom_site_type_symbol
  _atom_site_label
  _atom_site_symmetry_multiplicity
  _atom_site_fract_x
  _atom_site_fract_y
  _atom_site_fract_z
  _atom_site_occupancy
  N   N1        1.0  0.5953170957562858  0.8525134822571288  0.1229392246885036  1.0000
  C   C1        1.0  0.5419963710411678  0.8427619152445152  0.10856471753970598  1.0000
  C   C2        1.0  0.47567186800937444  0.8306328210107639  0.09068434052059088  1.0000
  C   C3        1.0  0.4545270085934295  0.7595826097214765  0.06517160710400599  1.0000
  C   C4        1.0  0.390097042393515  0.7477344901728284  0.04785664628311781  1.0000
  C   C5        1.0  0.3461286257428572  0.8071044558874517  0.05524938662769817  1.0000
  C   C6        1.0  0.3676500950179577  0.8779732795548082  0.0818169043400011  1.0000
  C   C7        1.0  0.4320859037390998  0.8897163346877013  0.0991326248155695  1.0000
  C   C8        1.0  0.2777712702956389  0.7937996023063406  0.037789942694014034  1.0000
  O   O1        1.0  0.254599130015697  0.7258889917000059  0.04947784742991668  1.0000
  N   N2        1.0  0.23720369424162918  0.8566864374832454  0.009296676731559757  1.0000
  C   C9        1.0  0.17169744324797442  0.8562582227718849  0.0328468585841134  1.0000
  C   C10       1.0  0.1503147894525812  0.9127386350481383  0.08030191477232257  1.0000
  C   C11       1.0  0.08656121922060891  0.9129289037542585  0.1031311298669284  1.0000
  C   C12       1.0  0.04366152242587001  0.8567516035905552  0.078451613915833  1.0000
  C   C13       1.0  0.9780221524467255  0.8569618894959798  0.10191384985476853  1.0000
  N   N3        1.0  0.9252508785564862  0.8571308679317905  0.12077657014270869  1.0000
  C   C14       1.0  0.0647652126534268  0.8004720655352168  0.030741548584828356  1.0000
  C   C15       1.0  0.12852722365782182  0.8002752418643637  0.007926737980856859  1.0000
  C   C16       1.0  0.2608411085273997  0.9175186335865189  0.9538755760183129  1.0000
  O   O2        1.0  0.2258569146907239  0.9730046880783346  0.9290723984174192  1.0000
  H   H1        1.0  0.487810814846704  0.7133443014684941  0.05869506060088148  1.0000
  H   H2        1.0  0.37468659954081013  0.6924091003822839  0.028054918262740754  1.0000
  H   H3        1.0  0.3345773244692057  0.9239440486585285  0.09009896271337176  1.0000
  H   H4        1.0  0.4478448119217647  0.9447203134740865  0.11942898983505999  1.0000
  H   H5        1.0  0.1832042192731005  0.9562983790677719  0.09969809895674928  1.0000
  H   H6        1.0  0.07074731371726642  0.9567972111356574  0.13994777483328746  1.0000
  H   H7        1.0  0.0319475024605209  0.75692510940257  0.011073564840110794  1.0000
  H   H8        1.0  0.14421993401227254  0.7569749501581295  0.9704498608155766  1.0000
  H   H9        1.0  0.3089976663787527  0.9159471860917304  0.9321247390538288  1.0000
  C   C17       1.0  0.7590327848765754  0.6269153710864385  0.12495979136917888  1.0000
  C   C18       1.0  0.7886456287595669  0.5847589959426511  0.18874295575505  1.0000
  C   C19       1.0  0.7855931711035635  0.5034721519060481  0.19623098473075795  1.0000
  C   C20       1.0  0.753484683973534  0.4629142494222997  0.13980453706642615  1.0000
  C   C21       1.0  0.7231128263385078  0.5047964082619752  0.07665965175171474  1.0000
  C   C22       1.0  0.7261126778343114  0.5860785524639515  0.06908993015651022  1.0000
  C   C23       1.0  0.7494244891704588  0.37707063714197686  0.14936666618251537  1.0000
  Cl  Cl1       1.0  0.7126709742598601  0.3352245981349431  0.235650363772122  1.0000
  C   C24       1.0  0.7711835754642886  0.3325671956333001  0.09442266369612073  1.0000
  Cl  Cl2       1.0  0.8079371370868316  0.3744131825628873  0.008138906890066579  1.0000
  C   C25       1.0  0.7671225648527926  0.24672369232905586  0.10398409467498582  1.0000
  C   C26       1.0  0.7974944928733507  0.2048411528546523  0.16712674842985198  1.0000
  C   C27       1.0  0.7944888562938881  0.12356209943622176  0.17468297054582493  1.0000
  C   C28       1.0  0.7615413271590304  0.08272312087234529  0.1187627673306517  1.0000
  C   C29       1.0  0.7319535169591749  0.12487633205145998  0.05503210627708599  1.0000
  C   C30       1.0  0.7350124034532408  0.2061661445795802  0.04755666232017697  1.0000
  H   H10       1.0  0.734417640279124  0.8130921313933926  0.047265743456558956  1.0000
  H   H11       1.0  0.8141231048253784  0.6145498748452008  0.23294337324658945  1.0000
  H   H12       1.0  0.8086768493677242  0.4721137914643621  0.2458400214812153  1.0000
  H   H13       1.0  0.6967586951922254  0.47451251284224194  0.03351824633217593  1.0000
  H   H14       1.0  0.7024336221937152  0.6168638881262165  0.01963481522112309  1.0000
  H   H15       1.0  0.823849954520197  0.23511948212747438  0.21027099366924284  1.0000
  H   H16       1.0  0.818162663203748  0.09274332549525749  0.22413203777724355  1.0000
  H   H17       1.0  0.7064723055207962  0.09511916818924997  0.01082019681043267  1.0000
  H   H18       1.0  0.7119294977449085  0.23753007492547984  0.9979502866053279  1.0000
  H   H19       1.0  0.7229883539523039  0.8978704548629525  0.07545354743220323  1.0000
  C   C31       1.0  0.7579372589005444  0.853424310005115  0.8924842188416986  1.0000
  C   C32       1.0  0.8070091268619275  0.8825583934422332  0.8423037270031268  1.0000
  C   C33       1.0  0.8013038094889247  0.8791711436419654  0.7612101246482543  1.0000
  C   C34       1.0  0.74631504437697  0.8465242663623406  0.7289463196843328  1.0000
  C   C35       1.0  0.6974120363982428  0.8174906713807262  0.7787663181999208  1.0000
  C   C36       1.0  0.7030311611756045  0.8208268667591152  0.8598625338718349  1.0000
  N   N4        1.0  0.7389456844640486  0.8421485839737481  0.646146051157413  1.0000
  N   N5        1.0  0.7815738924611938  0.8674577941218239  0.5975857383686791  1.0000
  C   C37       1.0  0.774204437094753  0.8630821735357904  0.514785412090893  1.0000
  C   C38       1.0  0.8231081992343685  0.8921163361571329  0.4649643553051559  1.0000
  C   C39       1.0  0.8174986749149098  0.8887857890992108  0.3838634099244716  1.0000
  C   C40       1.0  0.7626368211539167  0.8562142134159424  0.35123838839020727  1.0000
  C   C41       1.0  0.713521457578287  0.827054192132641  0.4014303074884398  1.0000
  C   C42       1.0  0.7192167295993396  0.8304356437101084  0.4825224231525833  1.0000
  H   H20       1.0  0.8234370075647606  0.8923088414302859  0.06866163685951354  1.0000
  H   H21       1.0  0.8498685338901845  0.90800389903482  0.865621534202698  1.0000
  H   H22       1.0  0.8398000646557157  0.9020263153137466  0.723887037971228  1.0000
  H   H23       1.0  0.6548143955420082  0.7922005310912628  0.7546056652095039  1.0000
  H   H24       1.0  0.6643962185007671  0.7978892861018118  0.8969542941953463  1.0000
  H   H25       1.0  0.8657042200097975  0.9174056639932366  0.4891300017233273  1.0000
  H   H26       1.0  0.8561429632255328  0.9117289639504014  0.3468027663240678  1.0000
  H   H27       1.0  0.6706670567149886  0.8016113217163434  0.37807898147460306  1.0000
  H   H28       1.0  0.6807184256713688  0.8075791275901046  0.5198414103185147  1.0000
  H   H29       1.0  0.8022544744767983  0.8797372955139307  0.1573099604509216  1.0000
  Zn  Zn1       1.0  0.690528894973922  0.8538439104784118  0.12231966475035028  1.0000
  Zn  Zn2       1.0  0.8300391038700602  0.8557941305532892  0.12140260248346278  1.0000
  C   C43       1.0  0.7617300827213188  0.8525950232916439  0.2645660504079793  1.0000
  C   C44       1.0  0.7588394457444316  0.8570440187451327  0.9791562701637191  1.0000
  C   C45       1.0  0.7610319861380838  0.9965467864100732  0.116821532435701  1.0000
  C   C46       1.0  0.7595374900175261  0.7130913227743938  0.12690084277012437  1.0000
  O   O3        1.0  0.8120856064693204  0.8589955385605454  0.007896228028325349  1.0000
  O   O4        1.0  0.8143689369764592  0.8521230885363976  0.23512984660983716  1.0000
  O   O5        1.0  0.8138045097748662  0.9683659527354828  0.11582509675044222  1.0000
  O   O6        1.0  0.8126499854961136  0.7427526788916694  0.12720091955847723  1.0000
  O   O7        1.0  0.7079179657398441  0.9668853614753369  0.11652134798416419  1.0000
  O   O8        1.0  0.7084823976435529  0.8506434294638668  0.23582604351826084  1.0000
  O   O9        1.0  0.7061990574093975  0.8575158467323793  0.008591486188512904  1.0000
  O   O10       1.0  0.7067634370029658  0.7412729818686002  0.12789623635673653  1.0000
