data_image0
_chemical_formula_structural       NC8OC7NH8C6H6C12H10Zn2C4O8
_chemical_formula_sum              "N2 C37 O9 H24 Zn2"
_cell_length_a       19.090736677544083
_cell_length_b       10.30288869885445
_cell_length_c       13.024585202197207
_cell_angle_alpha    85.80961696087208
_cell_angle_beta     93.99188052093368
_cell_angle_gamma    90.01756298745177

_space_group_name_H-M_alt    "P 1"
_space_group_IT_number       1

loop_
  _space_group_symop_operation_xyz
  'x, y, z'

loop_
  _atom_site_type_symbol
  _atom_site_label
  _atom_site_symmetry_multiplicity
  _atom_site_fract_x
  _atom_site_fract_y
  _atom_site_fract_z
  _atom_site_occupancy
  N   N1        1.0  0.6059071087467559  0.41498188303260597  0.8649198299065257  1.0000
  C   C1        1.0  0.5523803879379412  0.467671912565941  0.8649181517182704  1.0000
  C   C2        1.0  0.4857992065818557  0.5332105064078425  0.8649165667758321  1.0000
  C   C3        1.0  0.42592281694244133  0.4826484633074175  0.8142221457352181  1.0000
  C   C4        1.0  0.3612367826845156  0.5462682387506861  0.8141314798205019  1.0000
  C   C5        1.0  0.35555995797525464  0.6608614528353591  0.8655556653361739  1.0000
  C   C6        1.0  0.41617268269977714  0.7118117723815465  0.9151376273738754  1.0000
  C   C7        1.0  0.48081901463868004  0.6480371870052551  0.9151682413862485  1.0000
  C   C8        1.0  0.2874636324602465  0.7303069259537196  0.8648572458209653  1.0000
  O   O1        1.0  0.28748287820304835  0.8527565662046082  0.8648345695024633  1.0000
  C   C9        1.0  0.21934556824920104  0.6609876806744317  0.8641846260388941  1.0000
  C   C10       1.0  0.21363112642216742  0.5369239384606974  0.9156547015340093  1.0000
  C   C11       1.0  0.1489251362094726  0.47331852114581263  0.9155874449033174  1.0000
  C   C12       1.0  0.08906636438825691  0.5332147007697186  0.864871072466096  1.0000
  C   C13       1.0  0.09408417686249423  0.6572962797982519  0.8145737412360977  1.0000
  C   C14       1.0  0.15875049965166285  0.7210673893337971  0.8145804796624727  1.0000
  C   C15       1.0  0.022464566815743013  0.46767431017541367  0.8648934337268299  1.0000
  N   N2        1.0  0.9689213314935455  0.41498270150470495  0.8649112986895319  1.0000
  H   H1        1.0  0.429281753774993  0.394388880957611  0.7743793443601583  1.0000
  H   H2        1.0  0.31587591596562226  0.5066539049419396  0.7728804332358576  1.0000
  H   H3        1.0  0.41338889715142396  0.8004071780309394  0.9546360566625522  1.0000
  H   H4        1.0  0.5268835751042993  0.6883113691983576  0.9543279679750525  1.0000
  H   H5        1.0  0.2589781025862322  0.4897143508029106  0.9569231418654469  1.0000
  H   H6        1.0  0.14553724432681822  0.37772111370993927  0.9554653310549956  1.0000
  H   H7        1.0  0.048033515829571514  0.7047808633928095  0.775396614047257  1.0000
  H   H8        1.0  0.1615634266780386  0.8169370259085742  0.7750464066563412  1.0000
  C   C16       1.0  0.7873470647515346  0.033734930615070935  0.8648862039196569  1.0000
  C   C17       1.0  0.8587981698690063  0.029563745653181216  0.8990359476002714  1.0000
  C   C18       1.0  0.8942497529051099  0.9106149125383117  0.9159797353219117  1.0000
  C   C19       1.0  0.8589832714016924  0.794548650937087  0.8991243121573048  1.0000
  C   C20       1.0  0.7874885157622004  0.7962197042349257  0.8649537926600355  1.0000
  C   C21       1.0  0.7520449216391596  0.9163878704877549  0.8480137259976527  1.0000
  H   H9        1.0  0.7602757037822612  0.36261043968502715  0.8519463657996309  1.0000
  H   H10       1.0  0.8873798559622803  0.11815181161957232  0.9126964469628691  1.0000
  H   H11       1.0  0.9493133533265571  0.908371857603359  0.9422969041929083  1.0000
  H   H12       1.0  0.8876912822946886  0.7035961369080547  0.9128449934904035  1.0000
  H   H13       1.0  0.6969513102305805  0.9186750117420507  0.8216821218664264  1.0000
  H   H14       1.0  0.6528255690676332  0.5922033516884491  0.8005915107673365  1.0000
  C   C22       1.0  0.7730600235958928  0.41341911699150324  0.5627013183665996  1.0000
  C   C23       1.0  0.757593980378131  0.5171632973664411  0.4882810897071039  1.0000
  C   C24       1.0  0.7815261011212131  0.5151756687849287  0.38940025028934017  1.0000
  C   C25       1.0  0.8208668612071411  0.40909589868754703  0.3629426770701277  1.0000
  C   C26       1.0  0.8369984225604875  0.3060904191078353  0.4372897695708926  1.0000
  C   C27       1.0  0.8131015454588524  0.3079690953515586  0.5362138621863186  1.0000
  C   C28       1.0  0.8472088205710754  0.40789774585880023  0.25874187892098877  1.0000
  C   C29       1.0  0.9202622036414075  0.4036651981619287  0.2510575703865836  1.0000
  C   C30       1.0  0.9484215311577312  0.41054975683143424  0.15483318860950823  1.0000
  C   C31       1.0  0.9041192950910404  0.42202351718645553  0.06498666313439805  1.0000
  C   C32       1.0  0.8314255921368194  0.42504220043218655  0.07092823058370046  1.0000
  C   C33       1.0  0.8017755331979951  0.41653551873125544  0.16713865270251027  1.0000
  H   H15       1.0  0.7464689330788812  0.3120462455119473  0.8126353801263635  1.0000
  H   H16       1.0  0.7271286584820803  0.6000391777788874  0.5064719406791658  1.0000
  H   H17       1.0  0.7694824353490135  0.5964514178515659  0.3334103293303392  1.0000
  H   H18       1.0  0.867757544473784  0.2238853644961281  0.4184176098052227  1.0000
  H   H19       1.0  0.8260506842696557  0.22683120701941273  0.5918856275863205  1.0000
  H   H20       1.0  0.9556484062257319  0.3973302312547547  0.3200030245518533  1.0000
  H   H21       1.0  0.0047661547753523595  0.40797448295141625  0.14995043542974965  1.0000
  H   H22       1.0  0.926126769513607  0.42774862776616795  0.9904197060184377  1.0000
  H   H23       1.0  0.7982583678717073  0.43165615710282507  0.9997967698517818  1.0000
  H   H24       1.0  0.6293390022403141  0.4617823965326287  0.08261220034268059  1.0000
  Zn  Zn1       1.0  0.7106654620855234  0.41497867282063283  0.8649233027929775  1.0000
  Zn  Zn2       1.0  0.8641633929866285  0.4149753271310568  0.8649162270193508  1.0000
  C   C34       1.0  0.7963451862392911  0.4107744150360267  0.05288662105037612  1.0000
  C   C35       1.0  0.7784853501282446  0.41918122349728565  0.6769530098416576  1.0000
  C   C36       1.0  0.787263341510743  0.65207270018601  0.860839918149028  1.0000
  C   C37       1.0  0.7875671447959994  0.1778813788260276  0.8689997674758183  1.0000
  O   O2        1.0  0.8385578030384866  0.42110810547061495  0.7152942354814482  1.0000
  O   O3        1.0  0.8527740969263888  0.40884401282399907  0.014539728718178995  1.0000
  O   O4        1.0  0.8454396580312835  0.6036954352504266  0.8594606575189261  1.0000
  O   O5        1.0  0.8458921858909091  0.22625669193473688  0.8703732295186466  1.0000
  O   O6        1.0  0.7289366167996751  0.6036973080194791  0.859466300290683  1.0000
  O   O7        1.0  0.7362710533740063  0.40884744511685334  0.01454531675412496  1.0000
  O   O8        1.0  0.7220547007407189  0.4211114861423586  0.7152985861695894  1.0000
  O   O9        1.0  0.7293890872542566  0.22626006371845775  0.8703776573658442  1.0000
