data_image0
_chemical_formula_structural       NC9NC3OH6C6ClH3C7H8Zn2C4O8
_chemical_formula_sum              "N2 C29 O9 H17 Cl1 Zn2"
_cell_length_a       15.78231758774541
_cell_length_b       10.30297070629231
_cell_length_c       9.274345330872308
_cell_angle_alpha    85.12371235536625
_cell_angle_beta     89.64000707228584
_cell_angle_gamma    89.63144908567993

_space_group_name_H-M_alt    "P 1"
_space_group_IT_number       1

loop_
  _space_group_symop_operation_xyz
  'x, y, z'

loop_
  _atom_site_type_symbol
  _atom_site_label
  _atom_site_symmetry_multiplicity
  _atom_site_fract_x
  _atom_site_fract_y
  _atom_site_fract_z
  _atom_site_occupancy
  N   N1        1.0  0.8050460287374117  0.4236952948045721  0.4108227359423684  1.0000
  C   C1        1.0  0.7563939289882493  0.3414748211817269  0.43758116500040684  1.0000
  C   C2        1.0  0.695990573315251  0.23941922525916565  0.47079526902693547  1.0000
  C   C3        1.0  0.7154663574550484  0.11122155459674299  0.5124292922089947  1.0000
  C   C4        1.0  0.638644870822704  0.049091378110613273  0.5326896144191757  1.0000
  C   C5        1.0  0.5770022664384474  0.14397201260950365  0.5019215448775183  1.0000
  C   C6        1.0  0.4838853010367275  0.1264293356435322  0.5077120656960625  1.0000
  C   C7        1.0  0.4302975235041462  0.2339896821924654  0.47264921110003755  1.0000
  C   C8        1.0  0.34206969554089994  0.21960505320787616  0.4774052566566597  1.0000
  C   C9        1.0  0.28779003947835435  0.3302949865399838  0.4413130662919914  1.0000
  N   N2        1.0  0.24416207634419643  0.41927542178562854  0.41229817098729993  1.0000
  C   C10       1.0  0.3067481135232494  0.09749997373790967  0.5172786008836612  1.0000
  C   C11       1.0  0.3594052619547032  0.9901619720519083  0.5522738058259551  1.0000
  C   C12       1.0  0.4474468477537036  0.0041514418757116  0.5476470030794998  1.0000
  O   O1        1.0  0.6136247838763279  0.25641863878264526  0.46534908188031093  1.0000
  H   H1        1.0  0.7778640228822737  0.06798908766907275  0.526413271832401  1.0000
  H   H2        1.0  0.6297637900723342  0.9469338867866305  0.5658835935454347  1.0000
  H   H3        1.0  0.45704223872635885  0.32900912093002765  0.44161543230652245  1.0000
  H   H4        1.0  0.23861375759273432  0.08531695664569505  0.5213043656026071  1.0000
  H   H5        1.0  0.3319311808669049  0.8957921322894937  0.5830958923213321  1.0000
  H   H6        1.0  0.486408867859713  0.919132122708522  0.575374837556307  1.0000
  C   C13       1.0  0.024608053086140554  0.040237836341368675  0.41156668226805015  1.0000
  C   C14       1.0  0.11197488253357019  0.03602397020220361  0.4396577067064761  1.0000
  C   C15       1.0  0.1553239719041859  0.9169763190739673  0.4535956223926529  1.0000
  C   C16       1.0  0.11197488216410534  0.8009160020034185  0.4396576388319217  1.0000
  C   C17       1.0  0.024608061755024817  0.802722777497883  0.41156676491179206  1.0000
  C   C18       1.0  0.9813505210190274  0.9229708396291475  0.3976581520687915  1.0000
  Cl  Cl1       1.0  0.26446595800653405  0.913215713909689  0.4886879052588867  1.0000
  H   H7        1.0  0.14672279442873615  0.12487327858619324  0.45083006591855174  1.0000
  H   H8        1.0  0.14672276138978946  0.7096720868046689  0.4508299621198321  1.0000
  H   H9        1.0  0.9139705710135799  0.9252923741190566  0.3759934650674428  1.0000
  C   C19       1.0  0.02652485526866211  0.4243801243476484  0.987770681906979  1.0000
  C   C20       1.0  0.9760741937782429  0.5163355784165378  0.05286074825195716  1.0000
  C   C21       1.0  0.9205578770161092  0.5979013458031426  0.9706405985922344  1.0000
  C   C22       1.0  0.9135315722766573  0.5884214203615745  0.8216727818719454  1.0000
  C   C23       1.0  0.9652960466819878  0.5001030276563465  0.7545828440392671  1.0000
  C   C24       1.0  0.022691252058102403  0.4185804660233723  0.8353626777571973  1.0000
  C   C25       1.0  0.8551341254371876  0.6781954511577268  0.7329477681187031  1.0000
  H   H10       1.0  0.12379752185201792  0.14062070505687863  0.11643394903155178  1.0000
  H   H11       1.0  0.9782316422111746  0.5232806210727716  0.16868499015153635  1.0000
  H   H12       1.0  0.8823114141613655  0.6676373983950611  0.023674305634208585  1.0000
  H   H13       1.0  0.9620883066107107  0.49717529285327206  0.6381800079134772  1.0000
  H   H14       1.0  0.09126602707133852  0.23019624465443633  0.5716976623341217  1.0000
  H   H15       1.0  0.8897366478587946  0.7679875795482312  0.6939400252470097  1.0000
  H   H16       1.0  0.7995304735622828  0.705200699621608  0.7983358686025035  1.0000
  H   H17       1.0  0.8313299746450667  0.6304571875869186  0.6382661752848546  1.0000
  Zn  Zn1       1.0  0.9317653933400768  0.42241629007547177  0.41125684173596255  1.0000
  Zn  Zn2       1.0  0.1174426298901076  0.4205437496965339  0.41187586257258924  1.0000
  C   C26       1.0  0.023414014312147957  0.4145047038711945  0.6751496632526006  1.0000
  C   C27       1.0  0.02579603586708812  0.42845695258116046  0.1479831894627352  1.0000
  C   C28       1.0  0.024629724375361702  0.6586362585631869  0.40581578541380375  1.0000
  C   C29       1.0  0.024580262097158242  0.1843238381960648  0.4173171440316336  1.0000
  O   O2        1.0  0.09601498102355838  0.42910889012684833  0.20198688573899587  1.0000
  O   O3        1.0  0.0941197972972929  0.41243057493771706  0.6216153740319144  1.0000
  O   O4        1.0  0.09510054187870337  0.6095698921279269  0.4041263589284547  1.0000
  O   O5        1.0  0.09503417357249777  0.23196958360328537  0.41947579242367505  1.0000
  O   O6        1.0  0.954173786295193  0.6109904568091913  0.40365691166604456  1.0000
  O   O7        1.0  0.9531930420580053  0.4138526999525565  0.6211458498205695  1.0000
  O   O8        1.0  0.9550882336883396  0.43053098177207505  0.2015156264221074  1.0000
  O   O9        1.0  0.9541074257444355  0.2333916652223369  0.4190046413067343  1.0000
