data_image0
_chemical_formula_structural       NC5NC3F3CH3C9H6C9H8Zn2C4O8
_chemical_formula_sum              "N2 C31 F3 H17 Zn2 O8"
_cell_length_a       13.85151926108384
_cell_length_b       9.275152443626249
_cell_length_c       9.275155815604963
_cell_angle_alpha    85.85171904572837
_cell_angle_beta     90.35750761735815
_cell_angle_gamma    90.57354708821606

_space_group_name_H-M_alt    "P 1"
_space_group_IT_number       1

loop_
  _space_group_symop_operation_xyz
  'x, y, z'

loop_
  _atom_site_type_symbol
  _atom_site_label
  _atom_site_symmetry_multiplicity
  _atom_site_fract_x
  _atom_site_fract_y
  _atom_site_fract_z
  _atom_site_occupancy
  N   N1        1.0  0.9129076392129093  0.5650501055722845  0.40485051896484703  1.0000
  C   C1        1.0  0.8407819109038372  0.5565055970989334  0.4673324725639259  1.0000
  C   C2        1.0  0.751051845445797  0.5458750599905222  0.5450689611456165  1.0000
  C   C3        1.0  0.6632676483815492  0.5544486349727913  0.4695317747546232  1.0000
  C   C4        1.0  0.5759998557690286  0.5458750466682938  0.5450689411375835  1.0000
  C   C5        1.0  0.48576265929096385  0.5565056140635543  0.46733256655163097  1.0000
  N   N2        1.0  0.41322945379272796  0.5650500685807969  0.4048506245214163  1.0000
  C   C6        1.0  0.576501066253186  0.5277311381518317  0.6963227361675166  1.0000
  C   C7        1.0  0.664278341224429  0.5159777023529675  0.7731327077461763  1.0000
  C   C8        1.0  0.664864524909721  0.5018001973455848  0.9361658021892184  1.0000
  F   F1        1.0  0.7455169152767805  0.4274082130290289  0.9880123972367865  1.0000
  F   F2        1.0  0.5836481008318436  0.42740818327594476  0.9880124966136473  1.0000
  F   F3        1.0  0.6659921908495232  0.638099332535716  0.9874037362417403  1.0000
  C   C9        1.0  0.7515713925398962  0.5277310430397122  0.6963227561078471  1.0000
  H   H1        1.0  0.662873580922448  0.5686565392796187  0.35242516964834847  1.0000
  H   H2        1.0  0.5085873230849024  0.5230482015835818  0.7539779357958276  1.0000
  H   H3        1.0  0.8199040758890693  0.5230481203075588  0.7539778950443163  1.0000
  C   C10       1.0  0.16023147519524739  0.14143048548458892  0.4063219269683047  1.0000
  C   C11       1.0  0.1248861736386944  0.22311498269169297  0.28388271715376256  1.0000
  C   C12       1.0  0.09850509416092734  0.15659898354548196  0.15915114095226435  1.0000
  C   C13       1.0  0.10705291798618989  0.007216016006443834  0.15438912618089895  1.0000
  C   C14       1.0  0.14050598652738655  0.9238344566985692  0.27579356586996995  1.0000
  C   C15       1.0  0.16591482986075778  0.9886587574297504  0.4033916320797706  1.0000
  C   C16       1.0  0.08034977677192456  0.9389536359546616  0.025221734527539178  1.0000
  C   C17       1.0  0.05799209382291972  0.8817664266111874  0.9170642960290111  1.0000
  C   C18       1.0  0.03086545467795343  0.812367862121073  0.7858342130872575  1.0000
  H   H4        1.0  0.30017250700323966  0.22556179363375908  0.6941515440545447  1.0000
  H   H5        1.0  0.11979876113450172  0.33962856287580134  0.2834293753793826  1.0000
  H   H6        1.0  0.07229789127619073  0.22203454672474757  0.06581004870942131  1.0000
  H   H7        1.0  0.14455365816206903  0.8074897872771802  0.2717730795982847  1.0000
  H   H8        1.0  0.257051173809439  0.6950554991491602  0.6002574260221549  1.0000
  H   H9        1.0  0.07124021615397846  0.8639126467286655  0.6925457545122242  1.0000
  C   C19       1.0  0.16127982735384985  0.5613982766781996  0.9816381740745858  1.0000
  C   C20       1.0  0.08622787683112043  0.6316890678975607  0.049209925247853954  1.0000
  C   C21       1.0  0.017706611298269337  0.7115671631295202  0.9676488778032254  1.0000
  C   C22       1.0  0.022967852672068464  0.722827127045296  0.8170281366881502  1.0000
  C   C23       1.0  0.09607185810342503  0.6517612743157855  0.7477507011703106  1.0000
  C   C24       1.0  0.16486645002726252  0.5686908878969366  0.8280753774547636  1.0000
  C   C25       1.0  0.9525177201963374  0.806075453638966  0.7331428141930494  1.0000
  C   C26       1.0  0.8935284500161608  0.8757845584992591  0.6628736625764278  1.0000
  C   C27       1.0  0.8219555830176787  0.9603647707823946  0.5776024516740383  1.0000
  H   H10       1.0  0.38458087093586424  0.4450101448177253  0.09499859319783299  1.0000
  H   H11       1.0  0.08186374866939272  0.6276902602957544  0.1660152933193766  1.0000
  H   H12       1.0  0.9610996141893808  0.7657873317301203  0.022274373043452925  1.0000
  H   H13       1.0  0.09790111775604116  0.6585446508587884  0.630580944183686  1.0000
  H   H14       1.0  0.31382218556841446  0.4851510418447571  0.554781942079468  1.0000
  H   H15       1.0  0.8416013582861208  0.9645095183893243  0.4615891308024742  1.0000
  H   H16       1.0  0.7497088526313548  0.9089953306406678  0.5928063931102021  1.0000
  H   H17       1.0  0.8202595449683218  0.07175398088810825  0.6137219225275139  1.0000
  Zn  Zn1       1.0  0.057289716898040875  0.5650463153647456  0.4048588697082476  1.0000
  Zn  Zn2       1.0  0.26884732951375256  0.5650421936931305  0.4048540653270769  1.0000
  C   C28       1.0  0.16414781182739543  0.5615656084934598  0.6681005330604333  1.0000
  C   C29       1.0  0.16199155759625566  0.5685247218955964  0.14161253708120092  1.0000
  C   C30       1.0  0.1648112441604419  0.828465071066399  0.39820247777696793  1.0000
  C   C31       1.0  0.16132804177261484  0.30162352682211896  0.4115106751972648  1.0000
  O   O1        1.0  0.24251538999585678  0.5709085644261747  0.1952995932191841  1.0000
  O   O2        1.0  0.2441913032349837  0.5591775458719972  0.6144094194020027  1.0000
  O   O3        1.0  0.24472595730374191  0.7747022502363268  0.3964648250238474  1.0000
  O   O4        1.0  0.2419806633481535  0.35538386945169576  0.4132440795031618  1.0000
  O   O5        1.0  0.0841563108693886  0.7747046396090924  0.3964688555262159  1.0000
  O   O6        1.0  0.08362166809697213  0.559181667748212  0.6144133670658267  1.0000
  O   O7        1.0  0.08194574724261926  0.5709126211038515  0.19530180831510013  1.0000
  O   O8        1.0  0.08141102097960884  0.3553879167424334  0.4132464026873086  1.0000
