data_image0
_chemical_formula_structural       NC5NC3OH4C6NH7C9H8Zn2C4O8
_chemical_formula_sum              "N3 C27 O9 H19 Zn2"
_cell_length_a       13.84702359539666
_cell_length_b       9.274771166103582
_cell_length_c       9.275155815604965
_cell_angle_alpha    85.94411296578332
_cell_angle_beta     90.34320021190106
_cell_angle_gamma    90.59789355945463

_space_group_name_H-M_alt    "P 1"
_space_group_IT_number       1

loop_
  _space_group_symop_operation_xyz
  'x, y, z'

loop_
  _atom_site_type_symbol
  _atom_site_label
  _atom_site_symmetry_multiplicity
  _atom_site_fract_x
  _atom_site_fract_y
  _atom_site_fract_z
  _atom_site_occupancy
  N   N1        1.0  0.9136423675372773  0.564984184805523  0.4070405162671926  1.0000
  C   C1        1.0  0.841705055616319  0.55685586485022  0.47010542124944776  1.0000
  C   C2        1.0  0.7521161001645679  0.5467343894378061  0.5486345159302755  1.0000
  C   C3        1.0  0.6642832132647137  0.5565123710859212  0.47276977358467515  1.0000
  C   C4        1.0  0.5766676634232664  0.5468479942281708  0.5477526750580738  1.0000
  C   C5        1.0  0.4865605189872625  0.5569151926213334  0.4696448098855901  1.0000
  N   N2        1.0  0.4141260249190316  0.565008449198229  0.40685231320929427  1.0000
  C   C6        1.0  0.5768803863054963  0.5273764623911763  0.6988257126267783  1.0000
  C   C7        1.0  0.6643332650999202  0.517589343063743  0.7747584920246129  1.0000
  C   C8        1.0  0.7522658348285575  0.5271914500656982  0.7002603093724777  1.0000
  O   O1        1.0  0.8394395145298602  0.517387638088679  0.7763245017462379  1.0000
  H   H1        1.0  0.6641229949353187  0.5715973565453154  0.35573138321437425  1.0000
  H   H2        1.0  0.509519160451495  0.5197700807667205  0.7578407068258246  1.0000
  H   H3        1.0  0.6637143715278585  0.5025342843130085  0.8915654542963423  1.0000
  H   H4        1.0  0.8413300293496693  0.5032974962752039  0.8856441112367972  1.0000
  C   C9        1.0  0.16092725964881338  0.1414063860609156  0.407733069002973  1.0000
  C   C10       1.0  0.1381581688749396  0.22360371023013134  0.2788589556440457  1.0000
  C   C11       1.0  0.12440221832073009  0.15743628961581324  0.14916374752997896  1.0000
  C   C12       1.0  0.13346200303354339  0.007685980888203485  0.1474032032467134  1.0000
  C   C13       1.0  0.15443779590009798  0.9241538891064949  0.2745075199388587  1.0000
  C   C14       1.0  0.16685034504152935  0.9885752845302619  0.40617223262928315  1.0000
  N   N3        1.0  0.102220455869944  0.24272093713243434  0.018872917960303773  1.0000
  H   H5        1.0  0.27094909493452923  0.22378933809036552  0.7231072497445287  1.0000
  H   H6        1.0  0.13328651625740928  0.34019141279145065  0.2783071738328502  1.0000
  H   H7        1.0  0.12333526025063458  0.9553385652890957  0.047615653670380016  1.0000
  H   H8        1.0  0.1586762452258501  0.8079545200399508  0.2703783338380452  1.0000
  H   H9        1.0  0.23704942390659145  0.6933611032284911  0.6207400900688835  1.0000
  H   H10       1.0  0.09556653128008574  0.35479411256032933  0.018828610022888492  1.0000
  H   H11       1.0  0.09219467965586281  0.19441115310410145  0.9214554939054215  1.0000
  C   C15       1.0  0.16209386972924222  0.5613446584045616  0.9837287840724906  1.0000
  C   C16       1.0  0.08703737890890342  0.6316268606757216  0.051442571110252196  1.0000
  C   C17       1.0  0.018516377447867837  0.7114960086431936  0.970036622042275  1.0000
  C   C18       1.0  0.023782482222514785  0.7227554349071221  0.8194321289741251  1.0000
  C   C19       1.0  0.09689018023949084  0.6516981312274572  0.7500121360023311  1.0000
  C   C20       1.0  0.1656837001692013  0.568636930096074  0.830176443220228  1.0000
  C   C21       1.0  0.9533329361956125  0.8059944833954851  0.7357080866703165  1.0000
  C   C22       1.0  0.8943441580873203  0.8756958192597238  0.665573984024193  1.0000
  C   C23       1.0  0.8227718883413749  0.9602666052106955  0.580466631973056  1.0000
  H   H12       1.0  0.38543446358506206  0.4449755508541233  0.09681674895157855  1.0000
  H   H13       1.0  0.08267071632197354  0.627628122979426  0.16824310818615332  1.0000
  H   H14       1.0  0.9619062939968187  0.7657096143486  0.02477119549995788  1.0000
  H   H15       1.0  0.09872193623208882  0.6584811188708704  0.6328526717999995  1.0000
  H   H16       1.0  0.31466416112983886  0.48511018998135946  0.5566917099276192  1.0000
  H   H17       1.0  0.8424251820719133  0.9644120137545352  0.4644526270610183  1.0000
  H   H18       1.0  0.7504873652091337  0.9088972781936124  0.5956146045352053  1.0000
  H   H19       1.0  0.8211065776168467  0.0716478902125903  0.6167670629358843  1.0000
  Zn  Zn1       1.0  0.05807114653486889  0.5649873969996353  0.40699452227959476  1.0000
  Zn  Zn2       1.0  0.2696971892243152  0.564993535582218  0.40691009093201913  1.0000
  C   C24       1.0  0.1649628288754987  0.5615121175274657  0.6701903345686053  1.0000
  C   C25       1.0  0.16280783115834763  0.5684706363699881  0.1437144158234993  1.0000
  C   C26       1.0  0.16570141600214305  0.828392820036425  0.40072409830503664  1.0000
  C   C27       1.0  0.1620691600276507  0.3015882014784259  0.41318073214643847  1.0000
  O   O2        1.0  0.24335837944021296  0.5708582162406028  0.19737502566407097  1.0000
  O   O3        1.0  0.24503154093392635  0.5591281049379329  0.6164652304184208  1.0000
  O   O4        1.0  0.24562688310458272  0.7746376602602556  0.39886933578579425  1.0000
  O   O5        1.0  0.24276296466977088  0.3553486703039499  0.41497081224503574  1.0000
  O   O6        1.0  0.08500529887181019  0.7746322622773135  0.398933800987807  1.0000
  O   O7        1.0  0.08440996848760275  0.5591244393370038  0.6165296155822912  1.0000
  O   O8        1.0  0.08273679935789358  0.5708544854453568  0.19743767815735258  1.0000
  O   O9        1.0  0.08214138496963375  0.35534493012244495  0.41503357281120845  1.0000
