data_image0
_chemical_formula_structural       NC9NC3SH6C7NC2NH6C9H10Zn2C4O8
_chemical_formula_sum              "N4 C34 S1 H22 Zn2 O8"
_cell_length_a       16.77567553997237
_cell_length_b       9.273995741505848
_cell_length_c       9.272679976505533
_cell_angle_alpha    86.1595600704732
_cell_angle_beta     90.7858477527611
_cell_angle_gamma    91.47570659476311

_space_group_name_H-M_alt    "P 1"
_space_group_IT_number       1

loop_
  _space_group_symop_operation_xyz
  'x, y, z'

loop_
  _atom_site_type_symbol
  _atom_site_label
  _atom_site_symmetry_multiplicity
  _atom_site_fract_x
  _atom_site_fract_y
  _atom_site_fract_z
  _atom_site_occupancy
  N   N1        1.0  0.7536048825762369  0.5862405832251396  0.42158563158187246  1.0000
  C   C1        1.0  0.699345127554344  0.6414063152965421  0.46791750693650797  1.0000
  C   C2        1.0  0.6320079380055144  0.7098633375194927  0.5254118209189234  1.0000
  C   C3        1.0  0.6351058625822359  0.8085678904012981  0.631205171942092  1.0000
  C   C4        1.0  0.5598776129278006  0.857139173594091  0.6663199533497646  1.0000
  C   C5        1.0  0.49723010967687126  0.796468473824665  0.5877617562096733  1.0000
  C   C6        1.0  0.4109499795728699  0.8255164446475326  0.5998868092908669  1.0000
  C   C7        1.0  0.35338194729181643  0.7365894962857176  0.5349381372398648  1.0000
  C   C8        1.0  0.2719343295824532  0.7633948970575688  0.5458841083713848  1.0000
  C   C9        1.0  0.213676044603387  0.6714913294749276  0.47937833498006976  1.0000
  N   N2        1.0  0.1668535189554199  0.5976140336391526  0.42591751831453206  1.0000
  C   C10       1.0  0.2472261933278937  0.8794740100830354  0.6216008157412203  1.0000
  C   C11       1.0  0.3037015832415756  0.9685731216780412  0.6860374933399289  1.0000
  C   C12       1.0  0.3849950980635062  0.9421738554201696  0.675419672067676  1.0000
  S   S1        1.0  0.5367376546188295  0.682161306251835  0.4752028957506715  1.0000
  H   H1        1.0  0.6899062509711014  0.8443724439459107  0.6821130970147509  1.0000
  H   H2        1.0  0.5523558963894234  0.9332242692452274  0.7481054031891794  1.0000
  H   H3        1.0  0.37144226983290607  0.6458163001681263  0.47646568822381363  1.0000
  H   H4        1.0  0.18439915683977467  0.9011600055014269  0.6306385165887176  1.0000
  H   H5        1.0  0.2844553986331398  0.0586642192903577  0.7441556438587491  1.0000
  H   H6        1.0  0.42703454792152507  0.01437614015904033  0.7253051233856446  1.0000
  C   C13       1.0  0.9578441744572168  0.16836420921023376  0.4226734111039614  1.0000
  C   C14       1.0  0.9713423045284573  0.2509213774979943  0.29243469954565543  1.0000
  C   C15       1.0  0.9919964077390601  0.18536840809658317  0.1676785413129005  1.0000
  C   C16       1.0  2.0279550331679625e-05  0.03515797643446183  0.1696004267807234  1.0000
  C   C17       1.0  0.9848431269603368  0.9512673778916914  0.29862723238539157  1.0000
  C   C18       1.0  0.9626218440150371  0.015479594138973604  0.42484226505698774  1.0000
  C   C19       1.0  0.02287613986000792  0.9677101511311342  0.03586695449418541  1.0000
  N   N3        1.0  0.025276062816380396  0.04100516388784659  0.9048884776440719  1.0000
  C   C20       1.0  0.0488446982681372  0.9430357231220869  0.8144626994927546  1.0000
  C   C21       1.0  0.06051748407532685  0.8130592374730912  0.8911207058695804  1.0000
  N   N4        1.0  0.044220082455891596  0.8287327424568179  0.030344764687799224  1.0000
  H   H7        1.0  0.893978295569593  0.43288009561999446  0.6294952120168822  1.0000
  H   H8        1.0  0.00287312053901734  0.25307854928652085  0.06985539982458985  1.0000
  H   H9        1.0  0.9645890396455062  0.7194348049705364  0.6646124396296196  1.0000
  H   H10       1.0  0.057223971476034974  0.9653617815648128  0.6996062954490889  1.0000
  H   H11       1.0  0.07993695358606612  0.7141378372541058  0.8485857625507826  1.0000
  H   H12       1.0  0.04887851519594589  0.7489992557386463  0.11466616638868542  1.0000
  C   C22       1.0  0.9585971252022878  0.5884714806817879  0.0003695134277517124  1.0000
  C   C23       1.0  0.012282441867799584  0.5007418818089829  0.08097533377048013  1.0000
  C   C24       1.0  0.06996037636601482  0.4248086166874039  0.012785010107079213  1.0000
  C   C25       1.0  0.07590380318847911  0.43410924870457834  0.8620079191364152  1.0000
  C   C26       1.0  0.02125033564094836  0.519854938427226  0.78000277709222  1.0000
  C   C27       1.0  0.9618688808658606  0.5953723966372901  0.8471462428307743  1.0000
  C   C28       1.0  0.14096473907920548  0.34902622556272656  0.7963243593707289  1.0000
  C   C29       1.0  0.12160588183915233  0.28249467047200705  0.6538564562256899  1.0000
  C   C30       1.0  0.1784191342167332  0.4131882751754665  0.6569565689774888  1.0000
  H   H13       1.0  0.8390866326066347  0.6826887069858105  0.2723115476846696  1.0000
  H   H14       1.0  0.010979097999732625  0.4934314541323166  0.19801807519801246  1.0000
  H   H15       1.0  0.11086324291412386  0.3592873895778783  0.07867945580351843  1.0000
  H   H16       1.0  0.02306914789916314  0.5261394137477069  0.6632585354563613  1.0000
  H   H17       1.0  0.7816061302565498  0.7260822993838145  0.7308932972367637  1.0000
  H   H18       1.0  0.18227361818390841  0.28528805854980455  0.868781364134084  1.0000
  H   H19       1.0  0.06251666204492912  0.30547851251031677  0.6036170105902832  1.0000
  H   H20       1.0  0.15199180711250349  0.17950900405602832  0.63962125884285  1.0000
  H   H21       1.0  0.1538788092723753  0.5154963085493831  0.6084838084066888  1.0000
  H   H22       1.0  0.24201917864703626  0.38657810253804387  0.6445294961409451  1.0000
  Zn  Zn1       1.0  0.8728595257318783  0.5895189322878469  0.4228440454222125  1.0000
  Zn  Zn2       1.0  0.0475988502205551  0.5943240145672073  0.4246709145509251  1.0000
  C   C31       1.0  0.9612162705080998  0.5883218192805806  0.6870725366739296  1.0000
  C   C32       1.0  0.9592440244032782  0.5955230011142056  0.16044258941888856  1.0000
  C   C33       1.0  0.9616924585361045  0.8553098615856206  0.41868691077552267  1.0000
  C   C34       1.0  0.9587677672723399  0.32853322486277303  0.42882828712443577  1.0000
  O   O1        1.0  0.025773757176670076  0.5997067668764244  0.2148578472096352  1.0000
  O   O2        1.0  0.027309634088348966  0.587783908285771  0.6340434124584922  1.0000
  O   O3        1.0  0.027693273809230153  0.8033801166076403  0.41732011516657086  1.0000
  O   O4        1.0  0.025390057469598222  0.38411056635199037  0.43158103580112805  1.0000
  O   O5        1.0  0.895068258852859  0.7997323788648338  0.4159339235410091  1.0000
  O   O6        1.0  0.8946846286049356  0.5841379028511262  0.6326571483947898  1.0000
  O   O7        1.0  0.8931487447651764  0.5960606970533675  0.21346984958117723  1.0000
  O   O8        1.0  0.892765045414319  0.38046448709326736  0.43019314624209803  1.0000
