data_image0
_chemical_formula_structural       NC9NC3OH6C7OH6C6NCOH6Zn2C4O8
_chemical_formula_sum              "N3 C30 O11 H18 Zn2"
_cell_length_a       15.78231758774541
_cell_length_b       9.274078303013075
_cell_length_c       10.29962270195845
_cell_angle_alpha    85.7553890900743
_cell_angle_beta     90.10253899755935
_cell_angle_gamma    89.04960325712263

_space_group_name_H-M_alt    "P 1"
_space_group_IT_number       1

loop_
  _space_group_symop_operation_xyz
  'x, y, z'

loop_
  _atom_site_type_symbol
  _atom_site_label
  _atom_site_symmetry_multiplicity
  _atom_site_fract_x
  _atom_site_fract_y
  _atom_site_fract_z
  _atom_site_occupancy
  N   N1        1.0  0.7882003204962139  0.5688617327087082  0.5742699299498475  1.0000
  C   C1        1.0  0.7402177155447989  0.47774206038379163  0.5980986282111878  1.0000
  C   C2        1.0  0.6806453674854881  0.3646403985186073  0.6276761851952279  1.0000
  C   C3        1.0  0.7011646153690748  0.22256645609052156  0.664750955941533  1.0000
  C   C4        1.0  0.6248492224119928  0.1537118892813574  0.6827933899339513  1.0000
  C   C5        1.0  0.5624345515485428  0.2588628820164629  0.6553950953515892  1.0000
  C   C6        1.0  0.46946080986274413  0.23942210415951928  0.6605523845845174  1.0000
  C   C7        1.0  0.4149969342125039  0.358623873764671  0.629327956935176  1.0000
  C   C8        1.0  0.3268865837510245  0.3426829046262745  0.6335639709341365  1.0000
  C   C9        1.0  0.2717052958690684  0.4653529085331709  0.6014228061976916  1.0000
  N   N2        1.0  0.22735253033776143  0.563963764619916  0.57558416902339  1.0000
  C   C10       1.0  0.2925598919395041  0.20736275151542014  0.6690729175889945  1.0000
  C   C11       1.0  0.3460913499910951  0.08840742981428895  0.7002371465690771  1.0000
  C   C12       1.0  0.43401867892498885  0.10391047449439193  0.6961162308150342  1.0000
  O   O1        1.0  0.5981415596225232  0.38348044096086786  0.6228270989001463  1.0000
  H   H1        1.0  0.7639139079910137  0.1746540072460789  0.6772030506090279  1.0000
  H   H2        1.0  0.6167997303491022  0.040496880701257114  0.712352526172656  1.0000
  H   H3        1.0  0.4409674237268609  0.46392694538858165  0.601690978740546  1.0000
  H   H4        1.0  0.22452502223574672  0.1938615782734028  0.6726584788024521  1.0000
  H   H5        1.0  0.3193862038200588  0.9838242647929645  0.7276856076198377  1.0000
  H   H6        1.0  0.4736732570126788  0.009689485496485968  0.7208087444949658  1.0000
  C   C13       1.0  0.010305908756099262  0.14291667336349878  0.5737700890210071  1.0000
  C   C14       1.0  0.9938969555492406  0.22652076644913197  0.4564904951934617  1.0000
  C   C15       1.0  0.9701674992091723  0.16164162911347207  0.3436248527623611  1.0000
  C   C16       1.0  0.9626218140120835  0.011083749046651777  0.3479661703458423  1.0000
  C   C17       1.0  0.979983823622462  0.9264095366081567  0.46283170414210756  1.0000
  C   C18       1.0  0.005255110499946309  0.9898976395442095  0.5760952523598046  1.0000
  C   C19       1.0  0.9526849140652023  0.2527097611800333  0.22271020794785157  1.0000
  O   O2        1.0  0.9308851842667789  0.1976179599204786  0.11981951312813542  1.0000
  H   H7        1.0  0.0077664201785108125  0.21969067131632936  0.8935039792400772  1.0000
  H   H8        1.0  0.9976866086651891  0.3433430799495166  0.4537008703887207  1.0000
  H   H9        1.0  0.9440679334226367  0.9584075262593597  0.26217765163768325  1.0000
  H   H10       1.0  0.9755667088453123  0.8100213984432246  0.4621237936087019  1.0000
  H   H11       1.0  0.0072546931867356525  0.691064176558025  0.7908722374739561  1.0000
  H   H12       1.0  0.9585343242768616  0.3689586025680056  0.22136311279371412  1.0000
  C   C20       1.0  0.007700706262603552  0.566267479686718  0.1935752408658249  1.0000
  C   C21       1.0  0.9188444094195797  0.5783830658597118  0.19124652789150698  1.0000
  C   C22       1.0  0.874220408536865  0.5868465451805136  0.0731177335843669  1.0000
  C   C23       1.0  0.9190299315587851  0.5786900778408872  0.9560757446231096  1.0000
  C   C24       1.0  0.007860296793484208  0.5665468500293538  0.9562900212030515  1.0000
  C   C25       1.0  0.051710821941516084  0.5609829540156599  0.07554380510069203  1.0000
  N   N3        1.0  0.7831971535171667  0.597006509438045  0.07475323893580388  1.0000
  C   C26       1.0  0.7330154447768821  0.676274419546825  0.9767470295622765  1.0000
  O   O3        1.0  0.766653197864806  0.7592559339184557  0.8899680781381853  1.0000
  H   H13       1.0  0.17525492996339898  0.5418707780865719  0.4053224803784969  1.0000
  H   H14       1.0  0.8838339409869551  0.5825259616853891  0.2813077849152119  1.0000
  H   H15       1.0  0.8846393766836846  0.5788014328222217  0.8651198475184629  1.0000
  H   H16       1.0  0.12021019894647983  0.5516618189238048  0.07646163146634555  1.0000
  H   H17       1.0  0.7512887488258756  0.5525256255469475  0.15663116984699776  1.0000
  H   H18       1.0  0.6647314448601027  0.6680421436473578  0.9794126626194513  1.0000
  Zn  Zn1       1.0  0.9149301829411269  0.5674444354948326  0.5746566736228915  1.0000
  Zn  Zn2       1.0  0.10062271181162541  0.565369295403509  0.5752080090374432  1.0000
  C   C27       1.0  0.007862500342269428  0.5607488895314532  0.8121048540058322  1.0000
  C   C28       1.0  0.007692411342792517  0.5720666383793891  0.33775996713290324  1.0000
  C   C29       1.0  0.006204362201718707  0.8297983780890245  0.5704806895610335  1.0000
  C   C30       1.0  0.00935049646633356  0.30301541789712955  0.5793841958696269  1.0000
  O   O4        1.0  0.07815901197229384  0.5732190925669198  0.3863588900567321  1.0000
  O   O5        1.0  0.07833223890237259  0.5580203639476444  0.7639240050832332  1.0000
  O   O6        1.0  0.07699232170590223  0.7752812396636267  0.5688107840589351  1.0000
  O   O7        1.0  0.0794988657225883  0.35595822783982345  0.5814720135494866  1.0000
  O   O8        1.0  0.9360539656624064  0.7768555037682291  0.5683926689158774  1.0000
  O   O9        1.0  0.9373938725081293  0.5595963606866465  0.76350582545328  1.0000
  O   O10       1.0  0.9372206456073953  0.5747950384783128  0.38593914893539494  1.0000
  O   O11       1.0  0.9385604994361081  0.3575341634720419  0.5810523697647234  1.0000
