data_image0
_chemical_formula_structural       NC9NC3OH6C6SCOC6H10C7OC3NC3H11Zn2C4O8
_chemical_formula_sum              "N3 C42 O11 H27 S1 Zn2"
_cell_length_a       15.78231758774541
_cell_length_b       10.302038109246572
_cell_length_c       10.298749378158432
_cell_angle_alpha    85.56336078908822
_cell_angle_beta     90.0928215232676
_cell_angle_gamma    89.64990665055792

_space_group_name_H-M_alt    "P 1"
_space_group_IT_number       1

loop_
  _space_group_symop_operation_xyz
  'x, y, z'

loop_
  _atom_site_type_symbol
  _atom_site_label
  _atom_site_symmetry_multiplicity
  _atom_site_fract_x
  _atom_site_fract_y
  _atom_site_fract_z
  _atom_site_occupancy
  N   N1        1.0  0.7980091718677829  0.41303961155310676  0.5699681113397279  1.0000
  C   C1        1.0  0.7494632985155749  0.3309939462076099  0.5940398352960632  1.0000
  C   C2        1.0  0.6891917974187082  0.2291553324862281  0.6239190462805286  1.0000
  C   C3        1.0  0.7088328048998573  0.10122962853525141  0.6613727339504814  1.0000
  C   C4        1.0  0.6320917743035971  0.03923181908164852  0.6795988144713137  1.0000
  C   C5        1.0  0.5703270974437342  0.13391147789911795  0.6519200827353835  1.0000
  C   C6        1.0  0.4772331720020618  0.11640664920037147  0.6571292310413732  1.0000
  C   C7        1.0  0.4235061636483694  0.22373792204971954  0.6255868737919161  1.0000
  C   C8        1.0  0.3352972646237854  0.2093843816519061  0.6298654118091298  1.0000
  C   C9        1.0  0.2808742844551785  0.3198385141764759  0.5973970661997152  1.0000
  N   N2        1.0  0.23713110062788884  0.40862938630101814  0.5712954176678835  1.0000
  C   C10       1.0  0.3001340600120481  0.0875398207110809  0.6657352855091094  1.0000
  C   C11       1.0  0.35293017375426056  0.9804304519271068  0.6972167872787387  1.0000
  C   C12       1.0  0.4409533440999672  0.9943896776410038  0.6930545155634946  1.0000
  O   O1        1.0  0.6068044433094182  0.2461191879672353  0.6190197206211414  1.0000
  H   H1        1.0  0.7712859287814235  0.0580884956768759  0.6739526071634816  1.0000
  H   H2        1.0  0.6233424337759123  0.9372911655244751  0.7094599014566441  1.0000
  H   H3        1.0  0.45012760895136766  0.31855459562758837  0.5976690298167964  1.0000
  H   H4        1.0  0.23201572502321144  0.07538311805475839  0.6693568621126553  1.0000
  H   H5        1.0  0.3255785220209525  0.886261994305901  0.7249441940143555  1.0000
  H   H6        1.0  0.4800254768282879  0.9095515139492832  0.7179983325827728  1.0000
  C   C13       1.0  0.017493924087025325  0.029556837994868967  0.5705913635927835  1.0000
  C   C14       1.0  0.9450508439610389  0.035060156564118206  0.4908464928645895  1.0000
  C   C15       1.0  0.9094046854607337  0.920835904253824  0.4506860030752345  1.0000
  C   C16       1.0  0.945323369716449  0.7999248253839298  0.4907933061462044  1.0000
  C   C17       1.0  0.01765446102349233  0.7921021160871098  0.5706834305092991  1.0000
  C   C18       1.0  0.05341031871096821  0.9075746479508123  0.6100833008595722  1.0000
  S   S1        1.0  0.817450679501735  0.9293023498413262  0.34779080580310184  1.0000
  C   C19       1.0  0.8797299682301809  0.9371827326999219  0.2015454149675442  1.0000
  O   O2        1.0  0.9001555597835382  0.8317134626249677  0.15525341462545095  1.0000
  C   C20       1.0  0.907667591850562  0.06307342028873952  0.13612708822541442  1.0000
  C   C21       1.0  0.967563535448422  0.06481902705504639  0.03479351118128404  1.0000
  C   C22       1.0  0.9947889835502016  0.1828865704396132  0.9731477912406361  1.0000
  C   C23       1.0  0.9625767125584797  0.30044400362800716  0.011554761692815552  1.0000
  C   C24       1.0  0.9029354502539032  0.30016852745419254  0.11153595669857408  1.0000
  C   C25       1.0  0.8754276122083208  0.1824074329499783  0.1735010211751822  1.0000
  H   H7        1.0  0.15394253280945047  0.22648872671188114  0.7210695763525055  1.0000
  H   H8        1.0  0.9162204206726823  0.1278742153110437  0.4594810604479991  1.0000
  H   H9        1.0  0.9167658680532715  0.7124626476623113  0.4589401286918544  1.0000
  H   H10       1.0  0.10925919429559894  0.9024116592851745  0.6715579525811828  1.0000
  H   H11       1.0  0.04530246101202984  0.46181194021241373  0.6007359641887073  1.0000
  H   H12       1.0  0.9937710310502248  0.9749937747922837  0.0035726576516714728  1.0000
  H   H13       1.0  0.04100115218345632  0.183182036987412  0.8955836794746199  1.0000
  H   H14       1.0  0.9837508400949044  0.3917395444494214  0.9637406622951512  1.0000
  H   H15       1.0  0.8778382492764727  0.3913656551880853  0.14099937195399348  1.0000
  H   H16       1.0  0.8287189819089815  0.18550475015208764  0.24993120416871142  1.0000
  C   C26       1.0  0.01753510508306344  0.41085786160296855  0.18923621205759789  1.0000
  C   C27       1.0  0.06384251903050431  0.5272296670723186  0.17937052630295702  1.0000
  C   C28       1.0  0.08640835226114141  0.586884543750614  0.05714059679857831  1.0000
  C   C29       1.0  0.06384589678593278  0.5272784829202546  0.9441265129571899  1.0000
  C   C30       1.0  0.01761322678295473  0.410801058033237  0.9520385512115381  1.0000
  C   C31       1.0  0.9945566111660602  0.3535123762741952  0.07501599664704273  1.0000
  C   C32       1.0  0.13599561470157362  0.7091252001941595  0.04662508206574478  1.0000
  O   O3        1.0  0.18894336965317715  0.7269318573592841  0.9554404102862657  1.0000
  C   C33       1.0  0.12551832388069828  0.811156922167004  0.13949533824992355  1.0000
  C   C34       1.0  0.04625404492535809  0.8345216173088719  0.1959627315964594  1.0000
  C   C35       1.0  0.03679665192429571  0.9320953724990777  0.2826461244137026  1.0000
  N   N3        1.0  0.9561306905165234  0.9547519408832457  0.34007707980894497  1.0000
  C   C36       1.0  0.10673011769378798  0.007625935128392046  0.3122643331945085  1.0000
  C   C37       1.0  0.18532710882968106  0.9862181276509129  0.2553358229392282  1.0000
  C   C38       1.0  0.194735738044425  0.8889564583801735  0.169029124776801  1.0000
  H   H17       1.0  0.9311596217641772  0.18994772241725014  0.41532118998816325  1.0000
  H   H18       1.0  0.08320228827933879  0.5708705815482313  0.26698045712133434  1.0000
  H   H19       1.0  0.08172502431144668  0.5726100224039488  0.8497797062443979  1.0000
  H   H20       1.0  0.9588659846489829  0.26380828056449035  0.08186888184464115  1.0000
  H   H21       1.0  0.9305634193059251  0.19047654169573658  0.7597049464524979  1.0000
  H   H22       1.0  0.9915712736993327  0.7780771836348814  0.17174760689452984  1.0000
  H   H23       1.0  0.9035777742964844  0.8990211178957349  0.318683474413362  1.0000
  H   H24       1.0  0.9483825449015886  0.027330841733301803  0.4045500886438127  1.0000
  H   H25       1.0  0.10023526399417741  0.08328746904010174  0.37898684389990317  1.0000
  H   H26       1.0  0.23910521177801225  0.04513087644347813  0.2781418644673648  1.0000
  H   H27       1.0  0.2562880039175288  0.8736970724830211  0.12621295236370234  1.0000
  Zn  Zn1       1.0  0.9247302713448328  0.4117634471072269  0.570358636956354  1.0000
  Zn  Zn2       1.0  0.11040997151534876  0.4098949530234392  0.5709155079892612  1.0000
  C   C39       1.0  0.0175954993764824  0.405639392924582  0.8078519479944419  1.0000
  C   C40       1.0  0.01754677145814075  0.4160206250200327  0.3334223307071549  1.0000
  C   C41       1.0  0.01761920091666645  0.647965246756582  0.5654903830520779  1.0000
  C   C42       1.0  0.017523006237198272  0.17369321189138653  0.5757839645156995  1.0000
  O   O4        1.0  0.08801516414471705  0.41703854743300006  0.38202383825354325  1.0000
  O   O5        1.0  0.0880537025390477  0.4032023472758812  0.7596727186810319  1.0000
  O   O6        1.0  0.08807189207597022  0.5988835483321806  0.5639640375558749  1.0000
  O   O7        1.0  0.08799691123986902  0.22135735630953812  0.5777324218068947  1.0000
  O   O8        1.0  0.9471432682569435  0.6003010444601675  0.5635417229418564  1.0000
  O   O9        1.0  0.9471250790374097  0.40462140333955365  0.7592503350039682  1.0000
  O   O10       1.0  0.9470865405299377  0.4184575583672079  0.3815998930384361  1.0000
  O   O11       1.0  0.9470682876296459  0.22277635794994777  0.5773085739667294  1.0000
