data_image0
_chemical_formula_structural       NC9NC3SH6C6NO2H5C6NO2H3Zn2C4O8
_chemical_formula_sum              "N4 C28 S1 H14 O12 Zn2"
_cell_length_a       16.77567553997237
_cell_length_b       9.273392599741053
_cell_length_c       9.273395971720358
_cell_angle_alpha    85.0859035794884
_cell_angle_beta     90.29524247886945
_cell_angle_gamma    90.29770283283837

_space_group_name_H-M_alt    "P 1"
_space_group_IT_number       1

loop_
  _space_group_symop_operation_xyz
  'x, y, z'

loop_
  _atom_site_type_symbol
  _atom_site_label
  _atom_site_symmetry_multiplicity
  _atom_site_fract_x
  _atom_site_fract_y
  _atom_site_fract_z
  _atom_site_occupancy
  N   N1        1.0  0.7431233583737945  0.6153239195247255  0.4188487574849015  1.0000
  C   C1        1.0  0.6880149729593819  0.6696142505323337  0.4652135830429578  1.0000
  C   C2        1.0  0.6196246915421141  0.7369849668622311  0.5227487854434605  1.0000
  C   C3        1.0  0.6210947224608173  0.8336964614669375  0.628630072493709  1.0000
  C   C4        1.0  0.5451464446210519  0.8816028383114195  0.6637666771966217  1.0000
  C   C5        1.0  0.4835642662090169  0.8224094158108208  0.5851373017307944  1.0000
  C   C6        1.0  0.3968959702680803  0.8512251766049987  0.5972641717669036  1.0000
  C   C7        1.0  0.3406493545976102  0.7635278516945818  0.5322747107516468  1.0000
  C   C8        1.0  0.258844700485407  0.7901234991278291  0.5432220509728798  1.0000
  C   C9        1.0  0.2019491130977984  0.6994792146259433  0.47667490418438746  1.0000
  N   N2        1.0  0.1562219995977107  0.6266141964349631  0.4231808296083017  1.0000
  C   C10       1.0  0.2324550206459569  0.904766478114862  0.61898052963464  1.0000
  C   C11       1.0  0.2876094856275561  0.9926454731482366  0.6834572679125792  1.0000
  C   C12       1.0  0.3692538510964413  0.9664497568289849  0.6728383037415242  1.0000
  S   S1        1.0  0.5249094101240644  0.7102247453409818  0.4724892093687903  1.0000
  H   H1        1.0  0.6752446673941089  0.8685444470204456  0.6795857589727043  1.0000
  H   H2        1.0  0.5363687589511033  0.9561472114606463  0.7456202101487426  1.0000
  H   H3        1.0  0.3600211070636661  0.6738639555627792  0.4737705304621261  1.0000
  H   H4        1.0  0.1693382644923146  0.9262793828483467  0.6280195687740474  1.0000
  H   H5        1.0  0.2670613186914222  0.08163402046976033  0.7416070189637578  1.0000
  H   H6        1.0  0.4102340271485013  0.0377067664582329  0.722753267483426  1.0000
  C   C13       1.0  0.9521073027980083  0.1975164307917976  0.42013256832934626  1.0000
  C   C14       1.0  0.9420897169077226  0.2819553235889398  0.2881585331858632  1.0000
  C   C15       1.0  0.9250328834367021  0.21771009883841086  0.16089562398401425  1.0000
  C   C16       1.0  0.9174283107223443  0.06707337236442723  0.16205597568239605  1.0000
  C   C17       1.0  0.9286902860547458  0.9815105511810035  0.2930364071689897  1.0000
  C   C18       1.0  0.94724573541853  0.04441065955211964  0.4219095637545136  1.0000
  N   N3        1.0  0.8991354050143917  0.0014207968167347955  0.030547176453189943  1.0000
  O   O1        1.0  0.888805837560956  0.08556445789733777  0.9022786447111636  1.0000
  O   O2        1.0  0.8921158426962287  0.8672933082447227  0.0307040251658437  1.0000
  H   H7        1.0  0.9355166928490628  0.2698725731917304  0.7742627443332422  1.0000
  H   H8        1.0  0.945578643188935  0.39893724169220324  0.28393005674531646  1.0000
  H   H9        1.0  0.9169883741313494  0.28643538798155443  0.061594841414471135  1.0000
  H   H10       1.0  0.9248391440495382  0.8647925014337877  0.2940236010173417  1.0000
  H   H11       1.0  0.9387901510816488  0.743613821504753  0.6612740665332476  1.0000
  C   C19       1.0  0.9501046964044599  0.625405848385123  0.9970984200958419  1.0000
  C   C20       1.0  0.8788710953399749  0.6563773458220279  0.06700914410845017  1.0000
  C   C21       1.0  0.8074926482182242  0.6737078623246581  0.9898727958862543  1.0000
  C   C22       1.0  0.8053237270857845  0.6603988395317444  0.8405268180229261  1.0000
  C   C23       1.0  0.8765005482239051  0.6318970129509273  0.7691831538523601  1.0000
  C   C24       1.0  0.9492483184842933  0.6165212701360862  0.844943764850336  1.0000
  N   N4        1.0  0.7313214907673237  0.6771770177142178  0.7616538327191615  1.0000
  O   O3        1.0  0.6618723760520908  0.7062736690278928  0.8317670128577896  1.0000
  O   O4        1.0  0.728851169214592  0.6652239968331141  0.6286067341754619  1.0000
  H   H12       1.0  0.12545238140448656  0.46862795093480486  0.11501053213086432  1.0000
  H   H13       1.0  0.7537103850312048  0.6961525024353403  0.047743381574469224  1.0000
  H   H14       1.0  0.0687720436279187  0.5152262400419398  0.5745222642052057  1.0000
  Zn  Zn1       1.0  0.8623347193546749  0.6185781121411067  0.42010723712497167  1.0000
  Zn  Zn2       1.0  0.03701068920519468  0.623348116158432  0.4219341804303933  1.0000
  C   C25       1.0  0.9494414065966092  0.6124560110406869  0.6846707493736752  1.0000
  C   C26       1.0  0.9499058988318712  0.6294720873023435  0.15737083363891813  1.0000
  C   C27       1.0  0.9481663808528323  0.8843898194409214  0.41582103009241667  1.0000
  C   C28       1.0  0.9511808748384617  0.3575365439871938  0.4262206256259149  1.0000
  O   O5        1.0  0.016127836890283295  0.6326406549424999  0.21185302199355172  1.0000
  O   O6        1.0  0.01579449459233251  0.6129066825998526  0.6315747508723124  1.0000
  O   O7        1.0  0.014764000060896397  0.832496631823586  0.41447669419606736  1.0000
  O   O8        1.0  0.01715827186675445  0.4130507155407235  0.4289509698281423  1.0000
  O   O9        1.0  0.8821870770847781  0.8288755111326964  0.4130904470961867  1.0000
  O   O10       1.0  0.8832175617450632  0.6092872951977586  0.6301884304356575  1.0000
  O   O11       1.0  0.8835509061375347  0.6290212354795388  0.21046496582776933  1.0000
  O   O12       1.0  0.8845813410606335  0.4094312846296859  0.42756302187297823  1.0000
