data_image0
_chemical_formula_structural       NC5OC5NC4H8C7NH5C6OCH7Zn2C4O8
_chemical_formula_sum              "N3 C32 O10 H20 Zn2"
_cell_length_a       19.189071930511275
_cell_length_b       9.275154477615127
_cell_length_c       9.273891588657152
_cell_angle_alpha    86.29931945807607
_cell_angle_beta     89.6582401659116
_cell_angle_gamma    89.42495848434854

_space_group_name_H-M_alt    "P 1"
_space_group_IT_number       1

loop_
  _space_group_symop_operation_xyz
  'x, y, z'

loop_
  _atom_site_type_symbol
  _atom_site_label
  _atom_site_symmetry_multiplicity
  _atom_site_fract_x
  _atom_site_fract_y
  _atom_site_fract_z
  _atom_site_occupancy
  N   N1        1.0  0.6530210975759835  0.5634269379655057  0.4157755559934455  1.0000
  C   C1        1.0  0.5983746645292874  0.614445227537342  0.3956764204642249  1.0000
  C   C2        1.0  0.5304015566727776  0.6779034751291722  0.37067611291926017  1.0000
  C   C3        1.0  0.5204990974354698  0.7844952493242545  0.25853673525687104  1.0000
  C   C4        1.0  0.45446979908343876  0.8462191726217383  0.23439187465284864  1.0000
  C   C5        1.0  0.3976888585086412  0.8012228020336742  0.32088166154360587  1.0000
  O   O1        1.0  0.3324761657773153  0.8669559238284685  0.2942389094818325  1.0000
  C   C6        1.0  0.2677505458891651  0.8010067061196099  0.32025459145184554  1.0000
  C   C7        1.0  0.2104835245699423  0.8874510327886247  0.3541827837669669  1.0000
  C   C8        1.0  0.14490961901023852  0.826052565518294  0.3792730856514064  1.0000
  C   C9        1.0  0.13595109697152252  0.6773967946679333  0.3692044511955952  1.0000
  C   C10       1.0  0.0684464432447809  0.6141660593461188  0.3948654721105711  1.0000
  N   N2        1.0  0.014176683342972  0.5633307495756289  0.4154962758273997  1.0000
  C   C11       1.0  0.19275235109567096  0.5905910122207358  0.33314671855464173  1.0000
  C   C12       1.0  0.25831705428064977  0.6520337045854411  0.3081050230387339  1.0000
  C   C13       1.0  0.408063762485059  0.6956493611984031  0.43482131919863853  1.0000
  C   C14       1.0  0.4740839827928096  0.6339214955898873  0.4590342875498305  1.0000
  H   H1        1.0  0.5637630782866844  0.8199714817905446  0.18998458053679523  1.0000
  H   H2        1.0  0.4472746056190031  0.9287426844101466  0.14762624980727224  1.0000
  H   H3        1.0  0.2169480007931024  0.0025084704657101224  0.3619381596927629  1.0000
  H   H4        1.0  0.10126146990112203  0.8944259179916318  0.4062971866212344  1.0000
  H   H5        1.0  0.18628533270409273  0.47568784234910355  0.3236440282741775  1.0000
  H   H6        1.0  0.3012653741726177  0.5838578770069072  0.27729281560831387  1.0000
  H   H7        1.0  0.3654896982894052  0.6626150390820416  0.506106000383928  1.0000
  H   H8        1.0  0.48127683369887697  0.5525722500346844  0.5470160054379491  1.0000
  C   C15       1.0  0.835623408789924  0.13997398155184637  0.4139663362515653  1.0000
  C   C16       1.0  0.8168432022902823  0.2220115472260384  0.286889701875368  1.0000
  C   C17       1.0  0.7923761968136643  0.15489384991972854  0.16654967340290083  1.0000
  C   C18       1.0  0.7862849912930955  0.0048228920061685904  0.17186910443545034  1.0000
  C   C19       1.0  0.8057190226670935  0.9215513432614278  0.2960482914550089  1.0000
  C   C20       1.0  0.8315810842654071  0.9867727831415942  0.4173179388333368  1.0000
  C   C21       1.0  0.7726730533419316  0.2404996550679721  0.03794197290198142  1.0000
  N   N3        1.0  0.7568371987843769  0.3093111121276628  0.9345743239361309  1.0000
  H   H9        1.0  0.848166126098851  0.21983359057339455  0.7677764687679103  1.0000
  H   H10       1.0  0.8197009203050403  0.33893160372314  0.28261057567329195  1.0000
  H   H11       1.0  0.767109235357477  0.9518669265464011  0.07938052175914545  1.0000
  H   H12       1.0  0.8020600034693796  0.8050835769153116  0.2959242670054236  1.0000
  H   H13       1.0  0.8429868882664644  0.6901381588234405  0.6543784702155058  1.0000
  C   C22       1.0  0.8347621126731399  0.559554469520643  0.9923507871888141  1.0000
  C   C23       1.0  0.8915412826860772  0.6204389960428307  0.06112139043979781  1.0000
  C   C24       1.0  0.9443161633034051  0.6920910494579653  0.9815542173699847  1.0000
  C   C25       1.0  0.9405000896293692  0.7032198138801944  0.8301605572624862  1.0000
  C   C26       1.0  0.8851891652368772  0.6414618684659708  0.7600431685526097  1.0000
  C   C27       1.0  0.8324423614255884  0.5671922183095452  0.8389334207402115  1.0000
  O   O2        1.0  0.999200656541133  0.7512008565245554  0.056952173898570546  1.0000
  C   C28       1.0  0.05622480119800689  0.8270664441622406  0.9901317551662192  1.0000
  H   H14       1.0  0.6694262184890206  0.47104208648936785  0.10314571057270827  1.0000
  H   H15       1.0  0.9803812438258894  0.7582667679674415  0.7654252910193144  1.0000
  H   H16       1.0  0.8845913920846532  0.6488930256500498  0.6429918385339191  1.0000
  H   H17       1.0  0.7222152477303799  0.5018845499012345  0.5633176552366796  1.0000
  H   H18       1.0  0.037052651440367075  0.9246415060491792  0.9261368170200427  1.0000
  H   H19       1.0  0.08562341743338966  0.755500739984021  0.9194133968687712  1.0000
  H   H20       1.0  0.09173297661686665  0.861520492628209  0.0750841177708379  1.0000
  Zn  Zn1       1.0  0.757242802587648  0.56339540870108  0.415703264380739  1.0000
  Zn  Zn2       1.0  0.9099550195109939  0.563350634277336  0.41558030654169387  1.0000
  C   C29       1.0  0.8329067204496176  0.560004621153449  0.6788884612206298  1.0000
  C   C30       1.0  0.834292760189612  0.5667432418472619  0.15239525703783285  1.0000
  C   C31       1.0  0.8323573191114323  0.8266579432958978  0.4109403234383806  1.0000
  C   C32       1.0  0.834842117476553  0.3000881881280195  0.42034346485556373  1.0000
  O   O3        1.0  0.8920887616920226  0.5691325776076328  0.20606095638808042  1.0000
  O   O4        1.0  0.8910157644012086  0.5575802111864407  0.6251290204690394  1.0000
  O   O5        1.0  0.8905713305247734  0.7729061548593095  0.4087590099950742  1.0000
  O   O6        1.0  0.8925331437050343  0.3538066432891933  0.4224308588661363  1.0000
  O   O7        1.0  0.7746646262804361  0.7729393997060034  0.40885271209068064  1.0000
  O   O8        1.0  0.7751090520949441  0.5576151876267093  0.6252226525635476  1.0000
  O   O9        1.0  0.7761820544206871  0.5691674881682836  0.20615285524424865  1.0000
  O   O10       1.0  0.7766264361839509  0.35384154451219557  0.4225228657525977  1.0000
