data_image0
_chemical_formula_structural       NC5NC3BrH3C6NCOH7C9H10Zn2C4O8
_chemical_formula_sum              "N3 C28 Br1 H20 O9 Zn2"
_cell_length_a       13.839083392302014
_cell_length_b       9.273730183620392
_cell_length_c       10.297187173949778
_cell_angle_alpha    85.71383111101245
_cell_angle_beta     89.97508670927832
_cell_angle_gamma    90.62023199469779

_space_group_name_H-M_alt    "P 1"
_space_group_IT_number       1

loop_
  _space_group_symop_operation_xyz
  'x, y, z'

loop_
  _atom_site_type_symbol
  _atom_site_label
  _atom_site_symmetry_multiplicity
  _atom_site_fract_x
  _atom_site_fract_y
  _atom_site_fract_z
  _atom_site_occupancy
  N   N1        1.0  0.9213524171280768  0.5787322924758358  0.5707915907009589  1.0000
  C   C1        1.0  0.8489066671670011  0.5150823659080401  0.572865673532555  1.0000
  C   C2        1.0  0.7586458689983432  0.4358798503269458  0.575446407567838  1.0000
  C   C3        1.0  0.6716199823592213  0.5120898670089296  0.5729633560973801  1.0000
  C   C4        1.0  0.583052954535883  0.43735276672651135  0.5753983633990132  1.0000
  C   C5        1.0  0.49384102010845893  0.5159144885281552  0.572838544438723  1.0000
  N   N2        1.0  0.4221262295110621  0.5790719538779763  0.5707804730999041  1.0000
  C   C6        1.0  0.5814438112950155  0.2860941059495006  0.5803266160473997  1.0000
  C   C7        1.0  0.6680238076720569  0.2097628056300071  0.5828135368406013  1.0000
  C   C8        1.0  0.7567818906351024  0.28378568759857825  0.5804018181109938  1.0000
  Br  Br1       1.0  0.873418178370769  0.17368083801953116  0.5839892927946155  1.0000
  H   H1        1.0  0.6728118417806657  0.6293025275171771  0.5691441976831797  1.0000
  H   H2        1.0  0.5133395004772381  0.2272337578603265  0.5822441404859864  1.0000
  H   H3        1.0  0.6660704866812096  0.09279938428615403  0.5866242345750494  1.0000
  C   C9        1.0  0.16879249125714946  0.15539936150759037  0.5698196584328248  1.0000
  C   C10       1.0  0.18300243579854983  0.2388800870451786  0.45140829088780987  1.0000
  C   C11       1.0  0.20464132573121654  0.17407160983365388  0.3364655810673718  1.0000
  C   C12       1.0  0.21513349988486552  0.023623958562749348  0.34082807600360665  1.0000
  C   C13       1.0  0.1998407724642659  0.9389723376043261  0.45690313496378643  1.0000
  C   C14       1.0  0.17469534355914604  0.0023938092648581022  0.5717636773923789  1.0000
  N   N3        1.0  0.22101428434564419  0.2638436327582243  0.21831479437057366  1.0000
  C   C15       1.0  0.19692016624001374  0.222855058480262  0.09070551328185705  1.0000
  O   O1        1.0  0.14725294369117203  0.11091774240341201  0.0749322208057226  1.0000
  H   H4        1.0  0.1838326300838602  0.23208267595122242  0.8890331435622504  1.0000
  H   H5        1.0  0.17870437191585165  0.3557033863328447  0.4485434817742109  1.0000
  H   H6        1.0  0.23613080040278756  0.9711324554861718  0.25498331659793716  1.0000
  H   H7        1.0  0.20605892554613472  0.8226849498570611  0.4561906149256931  1.0000
  H   H8        1.0  0.18068111699382627  0.703609298370697  0.786554766180573  1.0000
  H   H9        1.0  0.2461015149608841  0.3696350563414724  0.22544912478535672  1.0000
  H   H10       1.0  0.21939102693223966  0.2914727751798267  0.00626073749700473  1.0000
  C   C16       1.0  0.17187128659315265  0.5788445199894785  0.18933837204431736  1.0000
  C   C17       1.0  0.07422281870360292  0.6183899771450894  0.18594954687274343  1.0000
  C   C18       1.0  0.02419462881237311  0.6386500385618401  0.06759694752751755  1.0000
  C   C19       1.0  0.07384428140126255  0.6185427215530769  0.9507271813625167  1.0000
  C   C20       1.0  0.17161653248785047  0.5789486355918341  0.952244926753929  1.0000
  C   C21       1.0  0.21999153624117262  0.559356677936674  0.0719401021513979  1.0000
  C   C22       1.0  0.9185807705855676  0.6814209817430787  0.07336386021579111  1.0000
  C   C23       1.0  0.8505274876338811  0.6233685917357739  0.9729603806437686  1.0000
  C   C24       1.0  0.8803699603629361  0.7824919048229837  0.9622254108415738  1.0000
  H   H11       1.0  0.20950106538074764  0.5636194765824689  0.5181816354753924  1.0000
  H   H12       1.0  0.03652522942889802  0.633657054651819  0.2760636334655222  1.0000
  H   H13       1.0  0.037192727449149254  0.6333824563875363  0.8581550121468253  1.0000
  H   H14       1.0  0.2953291856756586  0.528845809502889  0.07382730307285446  1.0000
  H   H15       1.0  0.35627699040368027  0.504148099567028  0.7478963295790257  1.0000
  H   H16       1.0  0.8846349056093727  0.6951695056755622  0.1694735046461293  1.0000
  H   H17       1.0  0.8827978809203904  0.5582979449173555  0.8982852756380195  1.0000
  H   H18       1.0  0.775290813248772  0.6038039285827312  0.008035836391243386  1.0000
  H   H19       1.0  0.9307684966865437  0.8140797897156479  0.8810303266456811  1.0000
  H   H20       1.0  0.8225740384585689  0.8559282458636059  0.9910243333240558  1.0000
  Zn  Zn1       1.0  0.06586489556999432  0.5788264458148784  0.5707958806403346  1.0000
  Zn  Zn2       1.0  0.2776136572709096  0.57896598140724  0.570786816292369  1.0000
  C   C25       1.0  0.17162248192378904  0.5731836617418764  0.808026062984676  1.0000
  C   C26       1.0  0.1718583958458737  0.5846105866764628  0.3335567655200724  1.0000
  C   C27       1.0  0.17357631312308053  0.8422930841772032  0.5662198673804765  1.0000
  C   C28       1.0  0.16990448029306585  0.3154994315173751  0.5753630264045393  1.0000
  O   O2        1.0  0.25221157727314103  0.5865923926650023  0.3819543215086352  1.0000
  O   O3        1.0  0.25198170363738526  0.57130667202555  0.7596212509399731  1.0000
  O   O4        1.0  0.2535583633311067  0.7886159334656764  0.564361040658679  1.0000
  O   O5        1.0  0.25063484542833336  0.3692831414805838  0.5772144344204937  1.0000
  O   O6        1.0  0.0928436351531232  0.788509285695487  0.564368262508474  1.0000
  O   O7        1.0  0.09126698755347151  0.571201756933074  0.7596284075057662  1.0000
  O   O8        1.0  0.09149686142477975  0.586487427103624  0.38195991621300407  1.0000
  O   O9        1.0  0.08992012947161188  0.36917816561745  0.5772201264905632  1.0000
