data_image0
_chemical_formula_structural       NC16NOH10C12H10C6H6Zn2C4O8
_chemical_formula_sum              "N2 C38 O9 H26 Zn2"
_cell_length_a       21.30360265646646
_cell_length_b       13.024581838241813
_cell_length_c       10.681121600428288
_cell_angle_alpha    84.14087780974744
_cell_angle_beta     89.58033317740289
_cell_angle_gamma    94.35234134953745

_space_group_name_H-M_alt    "P 1"
_space_group_IT_number       1

loop_
  _space_group_symop_operation_xyz
  'x, y, z'

loop_
  _atom_site_type_symbol
  _atom_site_label
  _atom_site_symmetry_multiplicity
  _atom_site_fract_x
  _atom_site_fract_y
  _atom_site_fract_z
  _atom_site_occupancy
  N   N1        1.0  0.6365652464769952  0.14105704757126067  0.5734267300922611  1.0000
  C   C1        1.0  0.5825230176609401  0.13556309175103795  0.5612047088044024  1.0000
  C   C2        1.0  0.5152991217982842  0.12872945897417296  0.546001577047496  1.0000
  C   C3        1.0  0.48790213629781576  0.1965203819900753  0.45604809331946683  1.0000
  C   C4        1.0  0.42261365210188895  0.19001038042843055  0.4411159075867379  1.0000
  C   C5        1.0  0.3836723182789762  0.1154689591228677  0.5164081974220549  1.0000
  C   C6        1.0  0.411879783223871  0.04739090830108906  0.6062075221051098  1.0000
  C   C7        1.0  0.4771710352040239  0.05413294632427454  0.6209394279406706  1.0000
  C   C8        1.0  0.3141560680580947  0.10713770881146599  0.5018541849188347  1.0000
  C   C9        1.0  0.2809347636383744  0.19106481975025041  0.4270698594599321  1.0000
  C   C10       1.0  0.21125808011008326  0.18337974921543065  0.45602495248780023  1.0000
  C   C11       1.0  0.1688938590358793  0.1289368362264056  0.381862101432428  1.0000
  C   C12       1.0  0.104447095083986  0.1198355675222267  0.4106769221933566  1.0000
  C   C13       1.0  0.0818222020580033  0.16443157407705722  0.5143234691280996  1.0000
  C   C14       1.0  0.12392581713668012  0.217937518314965  0.5893031598231858  1.0000
  C   C15       1.0  0.18837916864284826  0.2270875635847369  0.5605772578123487  1.0000
  C   C16       1.0  0.015483831991179102  0.15492982612733597  0.5440205299576579  1.0000
  N   N2        1.0  0.9621513443913299  0.14729033861032614  0.5678959095732086  1.0000
  O   O1        1.0  0.2825106905204391  0.026704170970921925  0.5500426642996077  1.0000
  H   H1        1.0  0.5170247542728662  0.2543135826474516  0.39714504962909114  1.0000
  H   H2        1.0  0.40306275170690686  0.24283535893072417  0.3696852129130854  1.0000
  H   H3        1.0  0.38344238473735587  0.9891552344324515  0.6657308586029316  1.0000
  H   H4        1.0  0.49788633627208634  0.0011638049521511856  0.6908385900672716  1.0000
  H   H5        1.0  0.30150706661496113  0.2681598091445505  0.4486883889032163  1.0000
  H   H6        1.0  0.2891472413646086  0.1859168139645737  0.32509860966408916  1.0000
  H   H7        1.0  0.1857728119840107  0.09344619564124355  0.301946584285552  1.0000
  H   H8        1.0  0.072323166055857  0.07785387955597178  0.3523905233342117  1.0000
  H   H9        1.0  0.10696811656835571  0.2523224872444241  0.670053755820089  1.0000
  H   H10       1.0  0.2204810737752012  0.26807012349814596  0.6198277081881749  1.0000
  C   C17       1.0  0.787287764646293  0.8410366968277244  0.5801126761568798  1.0000
  C   C18       1.0  0.7593792057769982  0.777999535465609  0.4932398983768871  1.0000
  C   C19       1.0  0.7801518290959195  0.6801049628262643  0.48171579297082334  1.0000
  C   C20       1.0  0.8288329511028942  0.6432069500963623  0.5574167287077458  1.0000
  C   C21       1.0  0.85720686765271  0.7062915552520004  0.6432381949957624  1.0000
  C   C22       1.0  0.8364798870906636  0.8042183230515279  0.6548429009982555  1.0000
  C   C23       1.0  0.8515573530760808  0.5402079142110272  0.5438212625006493  1.0000
  C   C24       1.0  0.9147067483115868  0.5357496229452035  0.5069545485011746  1.0000
  C   C25       1.0  0.937844569829489  0.44176788627368385  0.48490434458829634  1.0000
  C   C26       1.0  0.8982893055660892  0.35100992061299235  0.49906225283941086  1.0000
  C   C27       1.0  0.835619483974113  0.35360125420495025  0.5368456428344714  1.0000
  C   C28       1.0  0.8114345579096652  0.4473028589259003  0.5612209424352241  1.0000
  H   H11       1.0  0.7788501272849108  0.07772277547278207  0.6882699841667068  1.0000
  H   H12       1.0  0.7215778643423941  0.8043607878414736  0.43394705286332313  1.0000
  H   H13       1.0  0.7583499207313008  0.6330365582140132  0.4136168910756446  1.0000
  H   H14       1.0  0.8951650457488667  0.6793425646652481  0.7017495853800402  1.0000
  H   H15       1.0  0.8590375811455052  0.851031018880018  0.7223096605476842  1.0000
  H   H16       1.0  0.9459012892668988  0.6057550424962929  0.49304118635909266  1.0000
  H   H17       1.0  0.9864530787041473  0.4394542307762688  0.4558354090607122  1.0000
  H   H18       1.0  0.9163236300301405  0.27823603898302207  0.48151200894004065  1.0000
  H   H19       1.0  0.8062854659508899  0.2815556151342571  0.5492639299370208  1.0000
  H   H20       1.0  0.6573914314201448  0.3592976405153235  0.6157861032602523  1.0000
  C   C29       1.0  0.799361168586032  0.1441697617986801  0.20292156750714052  1.0000
  C   C30       1.0  0.7521074740903406  0.08589734023081586  0.1440519381435561  1.0000
  C   C31       1.0  0.7521074375022707  0.08589740567047133  0.013169796794425313  1.0000
  C   C32       1.0  0.7993611212132444  0.1441698114553251  0.9384120024456521  1.0000
  C   C33       1.0  0.846575806262128  0.20239394550312784  0.997283164474636  1.0000
  C   C34       1.0  0.8465757975867206  0.20239392934232642  0.12817546377301192  1.0000
  H   H21       1.0  0.8471472020091785  0.20309918312636768  0.49359767615431793  1.0000
  H   H22       1.0  0.7150677974411462  0.04022066217406015  0.19908982415769994  1.0000
  H   H23       1.0  0.7150677862556504  0.04022071051396404  0.9705857936409155  1.0000
  H   H24       1.0  0.8836203219523361  0.24807664176916  0.9422893508518279  1.0000
  H   H25       1.0  0.883620288857693  0.24807660497602005  0.17071372000156027  1.0000
  H   H26       1.0  0.8471473837617526  0.20309882723014455  0.6316686583170594  1.0000
  Zn  Zn1       1.0  0.7305222606810015  0.14285307709010034  0.5718379643618916  1.0000
  Zn  Zn2       1.0  0.8681940147926139  0.14548586189842355  0.5694951678846643  1.0000
  C   C35       1.0  0.7991959538784814  0.14005737748127922  0.7995167467762468  1.0000
  C   C36       1.0  0.7995218768425595  0.14828289273957915  0.34181644221355234  1.0000
  C   C37       1.0  0.806867056710897  0.3327055827798442  0.5598016158401617  1.0000
  C   C38       1.0  0.7918506776356333  0.9556334463117251  0.5815316793609153  1.0000
  O   O2        1.0  0.8518213458359283  0.1506579216679759  0.3875418922647884  1.0000
  O   O3        1.0  0.8513861297317944  0.13967979255614033  0.7520128321827597  1.0000
  O   O4        1.0  0.8575799379860553  0.29524564123513736  0.558441146466407  1.0000
  O   O5        1.0  0.8456274908977409  0.9950920794750624  0.581113484654332  1.0000
  O   O6        1.0  0.7530887375953061  0.2932468586161454  0.5602196483850834  1.0000
  O   O7        1.0  0.7468949787349874  0.1376822501691208  0.7537912286830181  1.0000
  O   O8        1.0  0.7473301934482258  0.14866034330928832  0.3893187842626824  1.0000
  O   O9        1.0  0.7411363382133969  0.9930944937329741  0.5828904707718949  1.0000
