data_image0
_chemical_formula_structural       NC9NC3SH6C7OCH9C6NO2H3Zn2C4O8
_chemical_formula_sum              "N3 C30 S1 H18 O11 Zn2"
_cell_length_a       16.77567553997237
_cell_length_b       10.30083208314754
_cell_length_c       9.273395971720356
_cell_angle_alpha    84.94403115029091
_cell_angle_beta     90.29524247886945
_cell_angle_gamma    90.88775763152196

_space_group_name_H-M_alt    "P 1"
_space_group_IT_number       1

loop_
  _space_group_symop_operation_xyz
  'x, y, z'

loop_
  _atom_site_type_symbol
  _atom_site_label
  _atom_site_symmetry_multiplicity
  _atom_site_fract_x
  _atom_site_fract_y
  _atom_site_fract_z
  _atom_site_occupancy
  N   N1        1.0  0.7523117658097027  0.4546694745253108  0.41490441039894743  1.0000
  C   C1        1.0  0.6975121987537003  0.5035602798455705  0.46113666817520066  1.0000
  C   C2        1.0  0.6295051405298776  0.5642305412943334  0.5185073627111052  1.0000
  C   C3        1.0  0.6315252930715088  0.6513234502376859  0.6241524966917977  1.0000
  C   C4        1.0  0.5558495199002527  0.6944652270593141  0.6591721221463875  1.0000
  C   C5        1.0  0.4939306329947155  0.6411589745092773  0.5806872869803267  1.0000
  C   C6        1.0  0.4074262490392032  0.6671088209183162  0.5927437938151336  1.0000
  C   C7        1.0  0.350680786826206  0.5881335640037492  0.5279684747956553  1.0000
  C   C8        1.0  0.269027416083044  0.6120841017310461  0.538850872955928  1.0000
  C   C9        1.0  0.2116162190349378  0.5304549794780453  0.47252506413879325  1.0000
  N   N2        1.0  0.1654746292388755  0.46483686013865133  0.4192089135807302  1.0000
  C   C10       1.0  0.2432898570893676  0.7153250925845407  0.6143294129040797  1.0000
  C   C11       1.0  0.2989442020031989  0.7944639513495524  0.678591565578607  1.0000
  C   C12       1.0  0.3804395590213904  0.7708735689919679  0.668036566904552  1.0000
  S   S1        1.0  0.5346376396000381  0.5401317974399424  0.46831313055941  1.0000
  H   H1        1.0  0.6858734629463841  0.6827055775130022  0.6750230902995692  1.0000
  H   H2        1.0  0.5474958631599016  0.7615956786096824  0.7408436303804611  1.0000
  H   H3        1.0  0.369542506350886  0.5073873241360709  0.46968323853534577  1.0000
  H   H4        1.0  0.18029547226412077  0.7346983993534879  0.623315921178272  1.0000
  H   H5        1.0  0.2789022264383661  0.8746020102282064  0.7365240216878437  1.0000
  H   H6        1.0  0.42182506457375935  0.8350436066548295  0.7177775331126548  1.0000
  C   C13       1.0  0.9589191061424097  0.07841565153562069  0.41720843627936977  1.0000
  C   C14       1.0  0.9368839672666421  0.08866577907109761  0.2703903411303372  1.0000
  C   C15       1.0  0.9248576822451666  0.9766528701296107  0.19688780018932173  1.0000
  C   C16       1.0  0.9368268252634232  0.8534090222198834  0.27000831302698547  1.0000
  C   C17       1.0  0.9588749303247384  0.8410807817435344  0.4169175176043241  1.0000
  C   C18       1.0  0.9696046678568186  0.954121158130776  0.4897363713826248  1.0000
  C   C19       1.0  0.9035674620631587  0.9888836726527345  0.038756988628100945  1.0000
  O   O1        1.0  0.9744642646694668  0.997319376084931  0.9569672898952137  1.0000
  C   C20       1.0  0.9552809618288813  0.00887100408035302  0.8082418025688014  1.0000
  H   H7        1.0  0.9290005602008982  0.18369921521707844  0.2125956787711743  1.0000
  H   H8        1.0  0.9289034657130929  0.7672965216979899  0.21195138085321297  1.0000
  H   H9        1.0  0.9866058984036816  0.9454531672690033  0.6029646739879841  1.0000
  H   H10       1.0  0.0013418741009318975  0.6106305942181598  0.6936194750429425  1.0000
  H   H11       1.0  0.8668884631730243  0.07747899274409133  0.014240740548095319  1.0000
  H   H12       1.0  0.8669208241482415  0.9023934329186224  0.013910053069260192  1.0000
  H   H13       1.0  0.01151127978196676  0.015388576671795603  0.7454179626883994  1.0000
  H   H14       1.0  0.9213557873131935  0.09922712058140824  0.7777830496179368  1.0000
  H   H15       1.0  0.9213700239165257  0.9217488171529586  0.7774254561601861  1.0000
  C   C21       1.0  0.9593504526290474  0.4637486901428636  0.9931294546492966  1.0000
  C   C22       1.0  0.8882930259738626  0.4916398711977817  0.0629645515172903  1.0000
  C   C23       1.0  0.8170131596041058  0.5072467553833091  0.9857858851126925  1.0000
  C   C24       1.0  0.8147685330837146  0.49526140126417384  0.8364724056260888  1.0000
  C   C25       1.0  0.8857832279806975  0.4695942662739805  0.765198338082713  1.0000
  C   C26       1.0  0.9584435367803196  0.4557477408492339  0.8409964940372339  1.0000
  N   N3        1.0  0.7408617356647273  0.5103708807593892  0.7575584508564348  1.0000
  O   O2        1.0  0.6715781307175721  0.5365736813031732  0.8276005819067449  1.0000
  O   O3        1.0  0.7383234220364635  0.4996066653633706  0.6245405395627417  1.0000
  H   H16       1.0  0.13380634175995687  0.32256337186419987  0.11142439172360487  1.0000
  H   H17       1.0  0.7633585677129774  0.5274591304005263  0.043601664795903  1.0000
  H   H18       1.0  0.07739106788850282  0.36452715876162817  0.5708223386780529  1.0000
  Zn  Zn1       1.0  0.8715416375346345  0.4576000165708145  0.4161549438524921  1.0000
  Zn  Zn2       1.0  0.046244740482022775  0.4618956127379335  0.41797023961699753  1.0000
  C   C27       1.0  0.9586135005790224  0.45208679814874153  0.6807334052339009  1.0000
  C   C28       1.0  0.9591747849435676  0.467410515215539  0.15339193912648796  1.0000
  C   C29       1.0  0.958885309248442  0.6969750248318611  0.4112196697068782  1.0000
  C   C30       1.0  0.9589029166682883  0.22252072616605  0.4229057515956166  1.0000
  O   O4        1.0  0.025414746687578715  0.4702639482442903  0.20786639037626786  1.0000
  O   O5        1.0  0.024969152118723633  0.4524926474971174  0.6276363062690156  1.0000
  O   O6        1.0  0.025187745710053333  0.6502429514375891  0.4100020481746796  1.0000
  O   O7        1.0  0.025196093597154242  0.2725136531489189  0.42550053960496537  1.0000
  O   O8        1.0  0.8925902248019162  0.6469819746954388  0.4086246432374585  1.0000
  O   O9        1.0  0.8923716311988594  0.4492332316569456  0.626258823762623  1.0000
  O   O10       1.0  0.8928172276798644  0.4670045035319126  0.2064871722190349  1.0000
  O   O11       1.0  0.8925985744709477  0.26925419812705  0.4241214296863056  1.0000
