data_image0
_chemical_formula_structural       NC9NC3OH6C10ClC2H7C11NC2H7Zn2C4O8
_chemical_formula_sum              "N3 C41 O9 H20 Cl1 Zn2"
_cell_length_a       15.78231758774541
_cell_length_b       10.299769246903262
_cell_length_c       10.299775503585813
_cell_angle_alpha    85.57618843231185
_cell_angle_beta     90.0960005900989
_cell_angle_gamma    89.64978214069643

_space_group_name_H-M_alt    "P 1"
_space_group_IT_number       1

loop_
  _space_group_symop_operation_xyz
  'x, y, z'

loop_
  _atom_site_type_symbol
  _atom_site_label
  _atom_site_symmetry_multiplicity
  _atom_site_fract_x
  _atom_site_fract_y
  _atom_site_fract_z
  _atom_site_occupancy
  N   N1        1.0  0.797957048413934  0.41290934860679784  0.5700159384628338  1.0000
  C   C1        1.0  0.7494121425754156  0.3308526301381874  0.5940921931145873  1.0000
  C   C2        1.0  0.6891418424104488  0.22900029691494564  0.623977027749925  1.0000
  C   C3        1.0  0.7087843556823112  0.10105733398467565  0.661437789474085  1.0000
  C   C4        1.0  0.6320440574547767  0.03905118369406324  0.6796672891182289  1.0000
  C   C5        1.0  0.5702782675791085  0.13374362916597415  0.6519833166560649  1.0000
  C   C6        1.0  0.47718455112186325  0.11623646538599333  0.6571934225182268  1.0000
  C   C7        1.0  0.42345627526172724  0.22358218140103903  0.6256451447036582  1.0000
  C   C8        1.0  0.335247547849441  0.20922672855362978  0.6299244670064394  1.0000
  C   C9        1.0  0.2808232630076371  0.31969572187143513  0.5974500295921084  1.0000
  N   N2        1.0  0.2370790303464573  0.4084985397498868  0.5713434841946583  1.0000
  C   C10       1.0  0.300085784313912  0.08736579114246787  0.6658010541171844  1.0000
  C   C11       1.0  0.3528831630942  0.9802420104294146  0.6972884636712805  1.0000
  C   C12       1.0  0.4409061664976545  0.9942030956532413  0.693125429373697  1.0000
  O   O1        1.0  0.6067542909727556  0.2459664623084119  0.6190767556796215  1.0000
  H   H1        1.0  0.7712379855946663  0.05791036472322754  0.6740200546145323  1.0000
  H   H2        1.0  0.62329591738393  0.9370967817129182  0.7095340113461277  1.0000
  H   H3        1.0  0.45007659898701646  0.3184115972857442  0.5977220770897975  1.0000
  H   H4        1.0  0.23196759459764524  0.07520746807050349  0.6694232952329338  1.0000
  H   H5        1.0  0.3255326252857075  0.8860608977481477  0.7250210582816301  1.0000
  H   H6        1.0  0.4799793015133363  0.9093535193037102  0.718073924751781  1.0000
  C   C13       1.0  0.017442415589578483  0.029339584171125473  0.5706742349341608  1.0000
  C   C14       1.0  0.025248902648978607  0.038774743756892376  0.4344951668975441  1.0000
  C   C15       1.0  0.02928550128062367  0.9264153776892802  0.3655030245866908  1.0000
  C   C16       1.0  0.025409748422159373  0.8034849761451892  0.4345175956354097  1.0000
  C   C17       1.0  0.017601776232396105  0.7920582253900404  0.5706963844090303  1.0000
  C   C18       1.0  0.013662057371690562  0.9055418835578167  0.6380121085908079  1.0000
  C   C19       1.0  0.0375455792908157  0.9374499735240146  0.22143704557183574  1.0000
  C   C20       1.0  0.09247369963923963  0.8539405849295679  0.1591178030587208  1.0000
  C   C21       1.0  0.10017288834597954  0.8645232182747643  0.02350920204761819  1.0000
  C   C22       1.0  0.05319009190932376  0.9583492919481359  0.9485666563271562  1.0000
  Cl  Cl1       1.0  0.06294318898691315  0.9713785371863245  0.7784439209374634  1.0000
  C   C23       1.0  0.9984231905419962  0.04177684449314122  0.009395532891034012  1.0000
  C   C24       1.0  0.9905737188959706  0.03158831170856335  0.14498338953812606  1.0000
  H   H7        1.0  0.029375628411088636  0.13372223028672003  0.3819211996858025  1.0000
  H   H8        1.0  0.02732906672607881  0.7166150572024225  0.3816372853233183  1.0000
  H   H9        1.0  0.007639423695765529  0.8974950130370157  0.7430679198625869  1.0000
  H   H10       1.0  0.13026464747724487  0.7816373821677916  0.21533452788603927  1.0000
  H   H11       1.0  0.14284563603370315  0.7999315299278779  0.9768523997322749  1.0000
  H   H12       1.0  0.9617317628503154  0.11435855897715297  0.9517297712878424  1.0000
  H   H13       1.0  0.9469837924236031  0.09614463221582124  0.18991226422216315  1.0000
  C   C25       1.0  0.01746968958688111  0.41060688772918974  0.18933142768758549  1.0000
  C   C26       1.0  0.950376393993809  0.5010500930464039  0.18118720960778245  1.0000
  C   C27       1.0  0.916432791950173  0.5469715203973555  0.059914705712877936  1.0000
  C   C28       1.0  0.9504819705287787  0.501235746968689  0.9458865232918878  1.0000
  C   C29       1.0  0.017574493667186213  0.4107909594002801  0.9520392052700601  1.0000
  C   C30       1.0  0.05069278963555646  0.3659834886015756  0.07421949381572235  1.0000
  C   C31       1.0  0.8454544193703883  0.6426556174539386  0.05235272611236241  1.0000
  C   C32       1.0  0.8448963331773797  0.7477169865888896  0.9565155415159774  1.0000
  C   C33       1.0  0.7780684989531997  0.8377445276615134  0.9495242060653264  1.0000
  C   C34       1.0  0.7109441414119873  0.8239907834437765  0.038025914179302234  1.0000
  C   C35       1.0  0.6421626327686315  0.9167171060006128  0.03070058739134818  1.0000
  N   N3        1.0  0.5868669354778511  0.9912626690063538  0.024811314199650873  1.0000
  C   C36       1.0  0.7108818736876217  0.7198291675040791  0.13367004350448242  1.0000
  C   C37       1.0  0.7776685319930402  0.6297290230894581  0.14091019200301025  1.0000
  H   H14       1.0  0.9251250428200116  0.5373460702545214  0.26925289860957347  1.0000
  H   H15       1.0  0.9237765635639293  0.5349801251436956  0.8522850002834699  1.0000
  H   H16       1.0  0.10245196962696501  0.29621022751618  0.07973426717141252  1.0000
  H   H17       1.0  0.8966756508717367  0.7612055763807594  0.8880562493806003  1.0000
  H   H18       1.0  0.7788743828595891  0.9182217913199193  0.8753100217471134  1.0000
  H   H19       1.0  0.6591199202248436  0.708047406822046  0.20245707998160126  1.0000
  H   H20       1.0  0.7757650964950151  0.5490021258436129  0.21468192174388867  1.0000
  Zn  Zn1       1.0  0.9246781635024449  0.4116330173226436  0.5704065325550887  1.0000
  Zn  Zn2       1.0  0.11035788600956481  0.4097642742530597  0.5709635056952452  1.0000
  C   C38       1.0  0.017551694435257392  0.40558255855078085  0.8078709690611547  1.0000
  C   C39       1.0  0.01748638305336225  0.4158163512489268  0.3334992027804131  1.0000
  C   C40       1.0  0.01756655770174853  0.6478869820762483  0.5655172493698506  1.0000
  C   C41       1.0  0.017471456110929914  0.1735103680940384  0.5758529914721728  1.0000
  O   O2        1.0  0.08795647136309959  0.41684985086609355  0.3820945933296218  1.0000
  O   O3        1.0  0.08800821891608224  0.40312974638264665  0.7596979343780219  1.0000
  O   O4        1.0  0.08801927148226846  0.5987936426230636  0.5639955882244161  1.0000
  O   O5        1.0  0.08794535542556531  0.2211859645299643  0.5777968419226063  1.0000
  O   O6        1.0  0.9470906307230673  0.6002113276848615  0.5635731961308281  1.0000
  O   O7        1.0  0.9470795784694456  0.40454899171298675  0.7592754730870819  1.0000
  O   O8        1.0  0.9470278307488617  0.4182690505636575  0.38167057069831234  1.0000
  O   O9        1.0  0.947016714819298  0.2226051549623631  0.5773729166550203  1.0000
