data_image0
_chemical_formula_structural       Cu8H104C92N8O32
_chemical_formula_sum              "Cu8 H104 C92 N8 O32"
_cell_length_a       8.677
_cell_length_b       13.042
_cell_length_c       28.201
_cell_angle_alpha    90.0
_cell_angle_beta     90.0
_cell_angle_gamma    90.0

_space_group_name_H-M_alt    "P 1"
_space_group_IT_number       1

loop_
  _space_group_symop_operation_xyz
  'x, y, z'

loop_
  _atom_site_type_symbol
  _atom_site_label
  _atom_site_symmetry_multiplicity
  _atom_site_fract_x
  _atom_site_fract_y
  _atom_site_fract_z
  _atom_site_occupancy
  Cu  Cu1       1.0  0.94926  0.9534399999999998  0.46123  1.0000
  Cu  Cu2       1.0  0.94926  0.54656  0.038770000000000006  1.0000
  Cu  Cu3       1.0  0.55074  0.04655999999999999  0.96123  1.0000
  Cu  Cu4       1.0  0.55074  0.45344  0.53877  1.0000
  Cu  Cu5       1.0  0.05074  0.04655999999999999  0.53877  1.0000
  Cu  Cu6       1.0  0.05074  0.45344  0.96123  1.0000
  Cu  Cu7       1.0  0.44925999999999977  0.9534399999999998  0.038770000000000006  1.0000
  Cu  Cu8       1.0  0.44925999999999977  0.54656  0.46123  1.0000
  H   H1        1.0  0.12159999999999999  0.7329999999999999  0.5903  1.0000
  H   H2        1.0  0.2168  0.7094  0.5445  1.0000
  H   H3        1.0  0.9137999999999996  0.6424  0.5618  1.0000
  H   H4        1.0  0.9942  0.6279  0.5124  1.0000
  H   H5        1.0  0.0164  0.4755  0.5574  1.0000
  H   H6        1.0  0.0999  0.5358  0.5981  1.0000
  H   H7        1.0  0.7849  0.753  0.4283  1.0000
  H   H8        1.0  0.6184  0.6925  0.3719  1.0000
  H   H9        1.0  0.6481  0.9643  0.3068  1.0000
  H   H10       1.0  0.8138  0.0162  0.3648000000000001  1.0000
  H   H11       1.0  0.44749999999999995  0.7282  0.3037000000000002  1.0000
  H   H12       1.0  0.4426  0.8401  0.2832  1.0000
  H   H13       1.0  0.6714999999999999  0.6939  0.2598  1.0000
  H   H14       1.0  0.12159999999999999  0.767  0.9097000000000001  1.0000
  H   H15       1.0  0.2168  0.7906  0.9555  1.0000
  H   H16       1.0  0.9137999999999996  0.8576  0.9382000000000003  1.0000
  H   H17       1.0  0.9942  0.8721  0.9876000000000005  1.0000
  H   H18       1.0  0.0164  0.0245  0.9426  1.0000
  H   H19       1.0  0.0999  0.9642  0.9019  1.0000
  H   H20       1.0  0.7849  0.747  0.07170000000000003  1.0000
  H   H21       1.0  0.6184  0.8074999999999999  0.1281  1.0000
  H   H22       1.0  0.6481  0.5357  0.1932  1.0000
  H   H23       1.0  0.8138  0.4838  0.13520000000000001  1.0000
  H   H24       1.0  0.44749999999999995  0.7718  0.1963  1.0000
  H   H25       1.0  0.4426  0.6599  0.2168  1.0000
  H   H26       1.0  0.6714999999999999  0.8061  0.2402  1.0000
  H   H27       1.0  0.3784  0.267  0.09030000000000005  1.0000
  H   H28       1.0  0.2832  0.2906  0.0445  1.0000
  H   H29       1.0  0.5862  0.3576  0.0618  1.0000
  H   H30       1.0  0.5057999999999999  0.3721  0.012400000000000005  1.0000
  H   H31       1.0  0.4835999999999999  0.5245  0.05740000000000001  1.0000
  H   H32       1.0  0.40009999999999984  0.4642  0.09810000000000005  1.0000
  H   H33       1.0  0.7150999999999997  0.247  0.9283  1.0000
  H   H34       1.0  0.8815999999999997  0.3075  0.8719  1.0000
  H   H35       1.0  0.8518999999999997  0.03570000000000001  0.8068000000000002  1.0000
  H   H36       1.0  0.6861999999999998  0.9838  0.8648  1.0000
  H   H37       1.0  0.0525  0.2718  0.8037  1.0000
  H   H38       1.0  0.0574  0.1599  0.7832  1.0000
  H   H39       1.0  0.8285  0.3061  0.7598  1.0000
  H   H40       1.0  0.3784  0.233  0.4097  1.0000
  H   H41       1.0  0.2832  0.2094  0.45550000000000007  1.0000
  H   H42       1.0  0.5862  0.1424  0.43820000000000003  1.0000
  H   H43       1.0  0.5057999999999999  0.1279  0.48760000000000014  1.0000
  H   H44       1.0  0.4835999999999999  0.9755  0.4426  1.0000
  H   H45       1.0  0.40009999999999984  0.0358  0.4019  1.0000
  H   H46       1.0  0.7150999999999997  0.253  0.5717  1.0000
  H   H47       1.0  0.8815999999999997  0.19249999999999998  0.6281000000000001  1.0000
  H   H48       1.0  0.8518999999999997  0.4643  0.6932  1.0000
  H   H49       1.0  0.6861999999999998  0.5162  0.6352000000000002  1.0000
  H   H50       1.0  0.0525  0.2282  0.6963000000000001  1.0000
  H   H51       1.0  0.0574  0.3401  0.7168  1.0000
  H   H52       1.0  0.8285  0.1939  0.7402000000000001  1.0000
  H   H53       1.0  0.8783999999999995  0.267  0.4097  1.0000
  H   H54       1.0  0.7832  0.2906  0.45550000000000007  1.0000
  H   H55       1.0  0.0862  0.3576  0.43820000000000003  1.0000
  H   H56       1.0  0.005799999999999998  0.3721  0.48760000000000014  1.0000
  H   H57       1.0  0.9836  0.5245  0.4426  1.0000
  H   H58       1.0  0.9001  0.4642  0.4019  1.0000
  H   H59       1.0  0.21509999999999996  0.247  0.5717  1.0000
  H   H60       1.0  0.3815999999999998  0.3075  0.6281000000000001  1.0000
  H   H61       1.0  0.3519  0.03570000000000001  0.6932  1.0000
  H   H62       1.0  0.18619999999999995  0.9838  0.6352000000000002  1.0000
  H   H63       1.0  0.5525  0.2718  0.6963000000000001  1.0000
  H   H64       1.0  0.5574  0.1599  0.7168  1.0000
  H   H65       1.0  0.3285  0.3061  0.7402000000000001  1.0000
  H   H66       1.0  0.8783999999999995  0.233  0.09030000000000005  1.0000
  H   H67       1.0  0.7832  0.2094  0.0445  1.0000
  H   H68       1.0  0.0862  0.1424  0.0618  1.0000
  H   H69       1.0  0.005799999999999998  0.1279  0.012400000000000005  1.0000
  H   H70       1.0  0.9836  0.9755  0.05740000000000001  1.0000
  H   H71       1.0  0.9001  0.0358  0.09810000000000005  1.0000
  H   H72       1.0  0.21509999999999996  0.253  0.9283  1.0000
  H   H73       1.0  0.3815999999999998  0.19249999999999998  0.8719  1.0000
  H   H74       1.0  0.3519  0.4643  0.8068000000000002  1.0000
  H   H75       1.0  0.18619999999999995  0.5162  0.8648  1.0000
  H   H76       1.0  0.5525  0.2282  0.8037  1.0000
  H   H77       1.0  0.5574  0.3401  0.7832  1.0000
  H   H78       1.0  0.3285  0.1939  0.7598  1.0000
  H   H79       1.0  0.6216  0.7329999999999999  0.9097000000000001  1.0000
  H   H80       1.0  0.7167999999999995  0.7094  0.9555  1.0000
  H   H81       1.0  0.4138  0.6424  0.9382000000000003  1.0000
  H   H82       1.0  0.4942  0.6279  0.9876000000000005  1.0000
  H   H83       1.0  0.5164  0.4755  0.9426  1.0000
  H   H84       1.0  0.5998999999999998  0.5358  0.9019  1.0000
  H   H85       1.0  0.2848999999999998  0.753  0.07170000000000003  1.0000
  H   H86       1.0  0.11839999999999999  0.6925  0.1281  1.0000
  H   H87       1.0  0.1481  0.9643  0.1932  1.0000
  H   H88       1.0  0.31379999999999986  0.0162  0.13520000000000001  1.0000
  H   H89       1.0  0.9474999999999998  0.7282  0.1963  1.0000
  H   H90       1.0  0.9426  0.8401  0.2168  1.0000
  H   H91       1.0  0.1715  0.6939  0.2402  1.0000
  H   H92       1.0  0.6216  0.767  0.5903  1.0000
  H   H93       1.0  0.7167999999999995  0.7906  0.5445  1.0000
  H   H94       1.0  0.4138  0.8576  0.5618  1.0000
  H   H95       1.0  0.4942  0.8721  0.5124  1.0000
  H   H96       1.0  0.5164  0.0245  0.5574  1.0000
  H   H97       1.0  0.5998999999999998  0.9642  0.5981  1.0000
  H   H98       1.0  0.2848999999999998  0.747  0.4283  1.0000
  H   H99       1.0  0.11839999999999999  0.8074999999999999  0.3719  1.0000
  H   H100      1.0  0.1481  0.5357  0.3068  1.0000
  H   H101      1.0  0.31379999999999986  0.4838  0.3648000000000001  1.0000
  H   H102      1.0  0.9474999999999998  0.7718  0.3037000000000002  1.0000
  H   H103      1.0  0.9426  0.6599  0.2832  1.0000
  H   H104      1.0  0.1715  0.8061  0.2598  1.0000
  C   C1        1.0  0.06199999999999999  0.8252  0.53484  1.0000
  C   C2        1.0  0.1141  0.7243999999999999  0.55622  1.0000
  C   C3        1.0  0.0125  0.6327999999999999  0.5463  1.0000
  C   C4        1.0  0.0861  0.5319  0.56397  1.0000
  C   C5        1.0  0.2394  0.5104  0.541  1.0000
  C   C6        1.0  0.7574999999999995  0.7961  0.4034000000000001  1.0000
  C   C7        1.0  0.6567  0.7589  0.36956  1.0000
  C   C8        1.0  0.6139  0.8209  0.3325  1.0000
  C   C9        1.0  0.6746  0.9195999999999999  0.33117  1.0000
  C   C10       1.0  0.7741999999999996  0.95  0.3663  1.0000
  C   C11       1.0  0.5106999999999999  0.7847  0.29266  1.0000
  C   C12       1.0  0.06199999999999999  0.6747999999999998  0.9651600000000001  1.0000
  C   C13       1.0  0.1141  0.7756  0.94378  1.0000
  C   C14       1.0  0.0125  0.8672  0.9537  1.0000
  C   C15       1.0  0.0861  0.9681  0.93603  1.0000
  C   C16       1.0  0.2394  0.9895999999999999  0.959  1.0000
  C   C17       1.0  0.7574999999999995  0.7038999999999999  0.0966  1.0000
  C   C18       1.0  0.6567  0.7410999999999999  0.13044  1.0000
  C   C19       1.0  0.6139  0.6791  0.1675  1.0000
  C   C20       1.0  0.6746  0.5804  0.16883000000000004  1.0000
  C   C21       1.0  0.7741999999999996  0.55  0.1337  1.0000
  C   C22       1.0  0.5106999999999999  0.7153  0.20734  1.0000
  C   C23       1.0  0.4379999999999998  0.17479999999999998  0.03484  1.0000
  C   C24       1.0  0.3859  0.2756  0.05622000000000001  1.0000
  C   C25       1.0  0.4875  0.3672  0.0463  1.0000
  C   C26       1.0  0.4139  0.46809999999999996  0.06397  1.0000
  C   C27       1.0  0.2606  0.4896  0.041  1.0000
  C   C28       1.0  0.7425  0.20389999999999997  0.9034  1.0000
  C   C29       1.0  0.8432999999999998  0.2411  0.86956  1.0000
  C   C30       1.0  0.8860999999999997  0.1791  0.8325  1.0000
  C   C31       1.0  0.8253999999999998  0.0804  0.83117  1.0000
  C   C32       1.0  0.7258  0.05  0.8663000000000002  1.0000
  C   C33       1.0  0.9893  0.2153  0.79266  1.0000
  C   C34       1.0  0.4379999999999998  0.3252  0.46516  1.0000
  C   C35       1.0  0.3859  0.2244  0.44378  1.0000
  C   C36       1.0  0.4875  0.1328  0.4537  1.0000
  C   C37       1.0  0.4139  0.0319  0.4360300000000001  1.0000
  C   C38       1.0  0.2606  0.0104  0.459  1.0000
  C   C39       1.0  0.7425  0.2961  0.5966000000000002  1.0000
  C   C40       1.0  0.8432999999999998  0.2589  0.63044  1.0000
  C   C41       1.0  0.8860999999999997  0.3209  0.6675000000000001  1.0000
  C   C42       1.0  0.8253999999999998  0.4196  0.66883  1.0000
  C   C43       1.0  0.7258  0.45  0.6337  1.0000
  C   C44       1.0  0.9893  0.2847  0.70734  1.0000
  C   C45       1.0  0.938  0.17479999999999998  0.46516  1.0000
  C   C46       1.0  0.8859  0.2756  0.44378  1.0000
  C   C47       1.0  0.9874999999999999  0.3672  0.4537  1.0000
  C   C48       1.0  0.9139  0.46809999999999996  0.4360300000000001  1.0000
  C   C49       1.0  0.7606  0.4896  0.459  1.0000
  C   C50       1.0  0.24249999999999997  0.20389999999999997  0.5966000000000002  1.0000
  C   C51       1.0  0.3432999999999999  0.2411  0.63044  1.0000
  C   C52       1.0  0.3861  0.1791  0.6675000000000001  1.0000
  C   C53       1.0  0.32539999999999986  0.0804  0.66883  1.0000
  C   C54       1.0  0.22579999999999992  0.05  0.6337  1.0000
  C   C55       1.0  0.48929999999999996  0.2153  0.70734  1.0000
  C   C56       1.0  0.938  0.3252  0.03484  1.0000
  C   C57       1.0  0.8859  0.2244  0.05622000000000001  1.0000
  C   C58       1.0  0.9874999999999999  0.1328  0.0463  1.0000
  C   C59       1.0  0.9139  0.0319  0.06397  1.0000
  C   C60       1.0  0.7606  0.0104  0.041  1.0000
  C   C61       1.0  0.24249999999999997  0.2961  0.9034  1.0000
  C   C62       1.0  0.3432999999999999  0.2589  0.86956  1.0000
  C   C63       1.0  0.3861  0.3209  0.8325  1.0000
  C   C64       1.0  0.32539999999999986  0.4196  0.83117  1.0000
  C   C65       1.0  0.22579999999999992  0.45  0.8663000000000002  1.0000
  C   C66       1.0  0.48929999999999996  0.2847  0.79266  1.0000
  C   C67       1.0  0.5619999999999999  0.8252  0.9651600000000001  1.0000
  C   C68       1.0  0.6140999999999999  0.7243999999999999  0.94378  1.0000
  C   C69       1.0  0.5125  0.6327999999999999  0.9537  1.0000
  C   C70       1.0  0.5860999999999996  0.5319  0.93603  1.0000
  C   C71       1.0  0.7394  0.5104  0.959  1.0000
  C   C72       1.0  0.2575  0.7961  0.0966  1.0000
  C   C73       1.0  0.15669999999999992  0.7589  0.13044  1.0000
  C   C74       1.0  0.1139  0.8209  0.1675  1.0000
  C   C75       1.0  0.17459999999999995  0.9195999999999999  0.16883000000000004  1.0000
  C   C76       1.0  0.2742  0.95  0.1337  1.0000
  C   C77       1.0  0.0107  0.7847  0.20734  1.0000
  C   C78       1.0  0.5619999999999999  0.6747999999999998  0.53484  1.0000
  C   C79       1.0  0.6140999999999999  0.7756  0.55622  1.0000
  C   C80       1.0  0.5125  0.8672  0.5463  1.0000
  C   C81       1.0  0.5860999999999996  0.9681  0.56397  1.0000
  C   C82       1.0  0.7394  0.9895999999999999  0.541  1.0000
  C   C83       1.0  0.2575  0.7038999999999999  0.4034000000000001  1.0000
  C   C84       1.0  0.15669999999999992  0.7410999999999999  0.36956  1.0000
  C   C85       1.0  0.1139  0.6791  0.3325  1.0000
  C   C86       1.0  0.17459999999999995  0.5804  0.33117  1.0000
  C   C87       1.0  0.2742  0.55  0.3663  1.0000
  C   C88       1.0  0.0107  0.7153  0.29266  1.0000
  C   C89       1.0  0.6055  0.75  0.25  1.0000
  C   C90       1.0  0.8945  0.25  0.7500000000000001  1.0000
  C   C91       1.0  0.3945  0.25  0.7500000000000001  1.0000
  C   C92       1.0  0.1055  0.75  0.25  1.0000
  N   N1        1.0  0.8177999999999995  0.8902999999999999  0.40253  1.0000
  N   N2        1.0  0.8177999999999995  0.6097  0.09747000000000004  1.0000
  N   N3        1.0  0.6822  0.10969999999999999  0.90253  1.0000
  N   N4        1.0  0.6822  0.3903  0.59747  1.0000
  N   N5        1.0  0.1822  0.10969999999999999  0.59747  1.0000
  N   N6        1.0  0.1822  0.3903  0.90253  1.0000
  N   N7        1.0  0.3178  0.8902999999999999  0.09747000000000004  1.0000
  N   N8        1.0  0.3178  0.6097  0.40253  1.0000
  O   O1        1.0  0.005799999999999998  0.8246899999999999  0.49426  1.0000
  O   O2        1.0  0.0849  0.90401  0.55974  1.0000
  O   O3        1.0  0.2577  0.54032  0.49924  1.0000
  O   O4        1.0  0.3399  0.464  0.5648700000000001  1.0000
  O   O5        1.0  0.005799999999999998  0.67531  0.0057399999999999994  1.0000
  O   O6        1.0  0.0849  0.59599  0.9402600000000003  1.0000
  O   O7        1.0  0.2577  0.95968  0.0007599999999999999  1.0000
  O   O8        1.0  0.3399  0.036  0.9351300000000002  1.0000
  O   O9        1.0  0.4942  0.17531  0.99426  1.0000
  O   O10       1.0  0.4151  0.09598999999999999  0.05974  1.0000
  O   O11       1.0  0.2423  0.45968  0.99924  1.0000
  O   O12       1.0  0.1601  0.536  0.06487  1.0000
  O   O13       1.0  0.4942  0.32469  0.50574  1.0000
  O   O14       1.0  0.4151  0.40401  0.44026000000000004  1.0000
  O   O15       1.0  0.2423  0.04032  0.50076  1.0000
  O   O16       1.0  0.1601  0.964  0.43513  1.0000
  O   O17       1.0  0.9942  0.17531  0.50574  1.0000
  O   O18       1.0  0.9151  0.09598999999999999  0.44026000000000004  1.0000
  O   O19       1.0  0.7423  0.45968  0.50076  1.0000
  O   O20       1.0  0.6600999999999999  0.536  0.43513  1.0000
  O   O21       1.0  0.9942  0.32469  0.99426  1.0000
  O   O22       1.0  0.9151  0.40401  0.05974  1.0000
  O   O23       1.0  0.7423  0.04032  0.99924  1.0000
  O   O24       1.0  0.6600999999999999  0.964  0.06487  1.0000
  O   O25       1.0  0.5057999999999999  0.8246899999999999  0.0057399999999999994  1.0000
  O   O26       1.0  0.5848999999999995  0.90401  0.9402600000000003  1.0000
  O   O27       1.0  0.7577  0.54032  0.0007599999999999999  1.0000
  O   O28       1.0  0.8399  0.464  0.9351300000000002  1.0000
  O   O29       1.0  0.5057999999999999  0.67531  0.49426  1.0000
  O   O30       1.0  0.5848999999999995  0.59599  0.55974  1.0000
  O   O31       1.0  0.7577  0.95968  0.49924  1.0000
  O   O32       1.0  0.8399  0.036  0.5648700000000001  1.0000
