data_image0
_chemical_formula_structural       NC8OC7NH8C12H10C12H10Zn2C4O8
_chemical_formula_sum              "N2 C43 O9 H28 Zn2"
_cell_length_a       19.090736677544083
_cell_length_b       14.994056859933256
_cell_length_c       13.024585202197208
_cell_angle_alpha    85.82059027263038
_cell_angle_beta     93.99188052093368
_cell_angle_gamma    89.97996928355784

_space_group_name_H-M_alt    "P 1"
_space_group_IT_number       1

loop_
  _space_group_symop_operation_xyz
  'x, y, z'

loop_
  _atom_site_type_symbol
  _atom_site_label
  _atom_site_symmetry_multiplicity
  _atom_site_fract_x
  _atom_site_fract_y
  _atom_site_fract_z
  _atom_site_occupancy
  N   N1        1.0  0.6054138685070031  0.9722682119610004  0.8650841705078924  1.0000
  C   C1        1.0  0.5518687807896709  0.008472803282518555  0.8650886119111623  1.0000
  C   C2        1.0  0.485264753719356  0.053505953327193545  0.8650946388343277  1.0000
  C   C3        1.0  0.4254059892061431  0.018763552857029794  0.814394345353459  1.0000
  C   C4        1.0  0.3606977781036451  0.06247823645638273  0.8143110684465316  1.0000
  C   C5        1.0  0.3549810080176502  0.1412180003339123  0.8657485631910649  1.0000
  C   C6        1.0  0.4155759722689611  0.17622719492362918  0.9153364427647109  1.0000
  C   C7        1.0  0.4802445350167236  0.13240613768191503  0.9153596497891655  1.0000
  C   C8        1.0  0.28686047491226824  0.18893566144831808  0.865058209299135  1.0000
  O   O1        1.0  0.28683703665279486  0.27307376541247735  0.865049754680399  1.0000
  C   C9        1.0  0.21876657429057417  0.14130473452949888  0.8643775385542969  1.0000
  C   C10       1.0  0.21309537911615709  0.05605754213943336  0.9158332048825897  1.0000
  C   C11       1.0  0.14841156074301873  0.01235272435672275  0.9157585609117087  1.0000
  C   C12       1.0  0.08853191006366913  0.05350883537449791  0.8650491450117381  1.0000
  C   C13       1.0  0.09350646966765923  0.1387682838706237  0.8147662250201876  1.0000
  C   C14       1.0  0.1581505628595914  0.18258695277824888  0.8147803700307864  1.0000
  C   C15       1.0  0.021952958831703985  0.008474450737870037  0.865063894198188  1.0000
  N   N2        1.0  0.9684280909684864  0.972268774352939  0.8650756393859589  1.0000
  H   H1        1.0  0.4287956919291141  0.9581182630843029  0.7745412932232382  1.0000
  H   H2        1.0  0.3153507203131484  0.0352582713373182  0.7730554209242224  1.0000
  H   H3        1.0  0.4127613037675132  0.23710323699286184  0.9548451618121598  1.0000
  H   H4        1.0  0.5262950565412657  0.16007950055576092  0.9545240539525733  1.0000
  H   H5        1.0  0.2584588117936332  0.02361869473802458  0.9570961621388596  1.0000
  H   H6        1.0  0.145056992600215  0.9466654378194707  0.9556253440693373  1.0000
  H   H7        1.0  0.0474392562621036  0.17139608761906877  0.7755946128454387  1.0000
  H   H8        1.0  0.1609300712513569  0.24846129452892796  0.7752574316362822  1.0000
  C   C16       1.0  0.7869867211519935  0.7103042269888791  0.8650062652590903  1.0000
  C   C17       1.0  0.8156851072188852  0.6677324243763998  0.7848110506002051  1.0000
  C   C18       1.0  0.8156809336251871  0.5745079229827816  0.7848684978271432  1.0000
  C   C19       1.0  0.7869347874282899  0.5218042217211227  0.8650492823380057  1.0000
  C   C20       1.0  0.7582222445280767  0.5644790470649624  0.9451884843319103  1.0000
  C   C21       1.0  0.7582789328866775  0.6577041871522293  0.9451768851077696  1.0000
  C   C22       1.0  0.7868992368762292  0.422727572329902  0.86509387290021  1.0000
  C   C23       1.0  0.7281728414912605  0.3732349859113356  0.8947626406126611  1.0000
  C   C24       1.0  0.7281331413337475  0.2800142863674441  0.8947602687222852  1.0000
  C   C25       1.0  0.7868623974226795  0.23422594468182253  0.8651624385558082  1.0000
  C   C26       1.0  0.8455762795600842  0.28361209647210983  0.8355472909612611  1.0000
  C   C27       1.0  0.8455924846591942  0.37684157105732935  0.8354674593089417  1.0000
  H   H9        1.0  0.7579713704733857  0.9180233654374185  0.9459950810061769  1.0000
  H   H10       1.0  0.8380264911214905  0.7064456355260301  0.7217616317791056  1.0000
  H   H11       1.0  0.8373574043737934  0.5436864298337494  0.7213512033927232  1.0000
  H   H12       1.0  0.7365221893056526  0.5257006895219521  0.008734598098386726  1.0000
  H   H13       1.0  0.7359585309697325  0.6884918206194798  0.008206127055459865  1.0000
  H   H14       1.0  0.6818110569898985  0.40670048921866964  0.916688914067846  1.0000
  H   H15       1.0  0.6819925036335585  0.24385016192889516  0.9177117510716142  1.0000
  H   H16       1.0  0.8917000475693617  0.2502748747939425  0.8126231628101429  1.0000
  H   H17       1.0  0.8919772784697153  0.4129759373673961  0.8135112848666749  1.0000
  H   H18       1.0  0.8461775901616392  0.023261389833878494  0.8352242417153262  1.0000
  C   C28       1.0  0.7725673281115932  0.9711943976862621  0.5628654774632327  1.0000
  C   C29       1.0  0.7570651213181597  0.042479528587246344  0.4884572979905115  1.0000
  C   C30       1.0  0.7809979349170371  0.04111378100407026  0.38957622772309436  1.0000
  C   C31       1.0  0.8203756727281669  0.9682238100195876  0.3631063340541153  1.0000
  C   C32       1.0  0.836543140157805  0.8974462582685284  0.4374414631632201  1.0000
  C   C33       1.0  0.812645608179431  0.8987371420701102  0.5363657739742203  1.0000
  C   C34       1.0  0.8467180497491719  0.9674005302854578  0.2589053967476073  1.0000
  C   C35       1.0  0.9197729082184937  0.9644922445818576  0.25122059663133656  1.0000
  C   C36       1.0  0.947929835886869  0.9692227910489226  0.15499701444931266  1.0000
  C   C37       1.0  0.9036236002493174  0.9771066887854342  0.06515182157407517  1.0000
  C   C38       1.0  0.8309288450299995  0.9791808989198516  0.07109373962307441  1.0000
  C   C39       1.0  0.801281751385482  0.9733357525570168  0.16730317374818382  1.0000
  H   H19       1.0  0.7460115745695866  0.9015386503748255  0.8127877654477549  1.0000
  H   H20       1.0  0.7265709102047876  0.09942554678686279  0.5066577744370678  1.0000
  H   H21       1.0  0.7689259377079221  0.09696031032602126  0.3335957463941254  1.0000
  H   H22       1.0  0.8673309174491892  0.8409611806715036  0.41855975583494787  1.0000
  H   H23       1.0  0.8256230303710846  0.8429853401870264  0.592028115755784  1.0000
  H   H24       1.0  0.9551613190717955  0.960139335882794  0.32016531503293055  1.0000
  H   H25       1.0  0.004275357204115423  0.9674532581943615  0.15011396216886386  1.0000
  H   H26       1.0  0.9256290789891484  0.9810405504789039  0.9905855293910909  1.0000
  H   H27       1.0  0.7977593152445039  0.983725508220691  0.9999630470576103  1.0000
  H   H28       1.0  0.6288294480839128  0.0044259746328461115  0.0827819765080113  1.0000
  Zn  Zn1       1.0  0.7101722229647996  0.9722660061468537  0.8650876430215004  1.0000
  Zn  Zn2       1.0  0.8636701550321592  0.9722637072427751  0.8650805668592938  1.0000
  C   C40       1.0  0.7958534126561426  0.9693771591249387  0.05305047298271591  1.0000
  C   C41       1.0  0.7779906460650164  0.975153680173681  0.6771178381680942  1.0000
  C   C42       1.0  0.7866874551729037  0.13517903621273455  0.8610317952495803  1.0000
  C   C43       1.0  0.7871565540310865  0.8093507315011678  0.8691365704529139  1.0000
  O   O2        1.0  0.8380624272947673  0.9764776872958456  0.715459287602229  1.0000
  O   O3        1.0  0.8522829962508308  0.9680507331617801  0.014703356447323004  1.0000
  O   O4        1.0  0.8448806352406328  0.10193784956398666  0.8596469159264711  1.0000
  O   O5        1.0  0.8454647322591837  0.8425905770025502  0.8705156509620581  1.0000
  O   O6        1.0  0.7283775933562068  0.1019391363888147  0.8596525589157374  1.0000
  O   O7        1.0  0.7357799515020056  0.9680530915730617  0.014708944881906216  1.0000
  O   O8        1.0  0.7215593238185509  0.9764800102370157  0.715463638683012  1.0000
  O   O9        1.0  0.7289616324471807  0.8425928938365452  0.8705200792008657  1.0000
