data_image0
_chemical_formula_structural       NC3SC3NH2C10H10C6H4Zn2C4O8
_chemical_formula_sum              "N2 C26 S1 H16 Zn2 O8"
_cell_length_a       14.05945120258396
_cell_length_b       15.491143632010283
_cell_length_c       10.302280534092331
_cell_angle_alpha    82.997624279567
_cell_angle_beta     89.94782287377025
_cell_angle_gamma    89.47477409013041

_space_group_name_H-M_alt    "P 1"
_space_group_IT_number       1

loop_
  _space_group_symop_operation_xyz
  'x, y, z'

loop_
  _atom_site_type_symbol
  _atom_site_label
  _atom_site_symmetry_multiplicity
  _atom_site_fract_x
  _atom_site_fract_y
  _atom_site_fract_z
  _atom_site_occupancy
  N   N1        1.0  0.8849415577263627  0.9502225763856909  0.5025841806945972  1.0000
  C   C1        1.0  0.8090452924524584  0.9275647395834378  0.5329442450696125  1.0000
  C   C2        1.0  0.7147651674145257  0.899422308542624  0.5706532476951965  1.0000
  C   C3        1.0  0.6973095675453758  0.8291441023253285  0.6648211067299419  1.0000
  S   S1        1.0  0.5787166811246675  0.8177981621373068  0.6800232121806656  1.0000
  C   C4        1.0  0.5498351526650987  0.9017319994784248  0.5675575849260572  1.0000
  C   C5        1.0  0.6323887829658894  0.9403369572401501  0.5158301100805196  1.0000
  C   C6        1.0  0.45459892319765033  0.9288772178852954  0.5311849816387304  1.0000
  N   N2        1.0  0.3778584435177843  0.9507506545152006  0.5018762801086651  1.0000
  H   H1        1.0  0.7505503074137864  0.7887112971841189  0.718998663189615  1.0000
  H   H2        1.0  0.6330132063835684  0.9960104903308407  0.441231711153955  1.0000
  C   C7        1.0  0.13426422918425818  0.6957740773781023  0.5194125840698702  1.0000
  C   C8        1.0  0.12158546026582642  0.6375476157859032  0.43491600873165526  1.0000
  C   C9        1.0  0.12695035604713256  0.5419950793386038  0.471934820973098  1.0000
  C   C10       1.0  0.17564180154792738  0.5036423637794503  0.5840330768273516  1.0000
  C   C11       1.0  0.17931744069784847  0.4132164641525855  0.6141654547959305  1.0000
  C   C12       1.0  0.13585922854362287  0.3589715630606747  0.5325372297036249  1.0000
  C   C13       1.0  0.08716785416859985  0.3973242786942486  0.42043897375268796  1.0000
  C   C14       1.0  0.08349207276713516  0.48775017817227223  0.3903065959774754  1.0000
  C   C15       1.0  0.1412241954507003  0.2634190266877958  0.5695560418483847  1.0000
  C   C16       1.0  0.12854492944502782  0.20519249362651348  0.4850595675563261  1.0000
  H   H3        1.0  0.13563283245543062  0.9121370743282506  0.5476873646059677  1.0000
  H   H4        1.0  0.1481329352972216  0.6747951624491739  0.6216227078519547  1.0000
  H   H5        1.0  0.10347637644574759  0.6606685860813671  0.3343245363688967  1.0000
  H   H6        1.0  0.21246855286872168  0.542694090953455  0.6477602609656035  1.0000
  H   H7        1.0  0.21730979323494948  0.3854508590351055  0.7010280823273134  1.0000
  H   H8        1.0  0.05034095986886112  0.35827261611563854  0.35671178719891006  1.0000
  H   H9        1.0  0.04549986175417642  0.5155158481828288  0.30344396564383413  1.0000
  H   H10       1.0  0.15933349258233442  0.24029806281949742  0.6701474161606109  1.0000
  H   H11       1.0  0.11467579737059545  0.22617133716077908  0.3828495447237162  1.0000
  H   H12       1.0  0.12717554332600778  0.9888295357863561  0.45678517651678163  1.0000
  C   C17       1.0  0.13140460144106392  0.9504832789018354  0.12096791848984424  1.0000
  C   C18       1.0  0.09830960318486781  0.9843418062474422  0.9960705522151434  1.0000
  C   C19       1.0  0.13140459410575717  0.9504832778036194  0.8835042336091856  1.0000
  C   C20       1.0  0.19832910300544354  0.8820147981272295  0.8972025452341629  1.0000
  C   C21       1.0  0.23143055444394922  0.8481497522427535  0.02087065602196114  1.0000
  C   C22       1.0  0.1983292096540863  0.8820148094183029  0.1322054548834981  1.0000
  H   H13       1.0  0.04674662440100754  0.03709450797317792  0.986464491845248  1.0000
  H   H14       1.0  0.2251320397972767  0.8545935417389364  0.8124035930335693  1.0000
  H   H15       1.0  0.2829723765987273  0.7954189040735234  0.030472938023350382  1.0000
  H   H16       1.0  0.22513214544660687  0.8545935334543676  0.22699108272640411  1.0000
  Zn  Zn1       1.0  0.027186757416419096  0.9503726510119113  0.5023875550520374  1.0000
  Zn  Zn2       1.0  0.23561333332851336  0.9505934990278652  0.5020840364088497  1.0000
  C   C23       1.0  0.13144126454743033  0.9470278431102407  0.7396015618071801  1.0000
  C   C24       1.0  0.13136108992214512  0.9539394037590851  0.264870079969159  1.0000
  C   C25       1.0  0.12962113101722822  0.10890156869909307  0.4863792179549258  1.0000
  C   C26       1.0  0.13318116403075209  0.7920646359841383  0.5180925634208546  1.0000
  O   O1        1.0  0.21044332887751938  0.9551793374114335  0.3130500313640088  1.0000
  O   O2        1.0  0.21054998139304346  0.9459548736449003  0.6911909171642232  1.0000
  O   O3        1.0  0.20907913428596836  0.07666995310079217  0.4867120236465964  1.0000
  O   O4        1.0  0.21191410479306225  0.8244642640850267  0.5175288272178362  1.0000
  O   O5        1.0  0.050885914826098735  0.07650188588033013  0.48694276433973416  1.0000
  O   O6        1.0  0.05235675022899701  0.9457878485361125  0.6914215183546033  1.0000
  O   O7        1.0  0.05225009811610073  0.9550122820766598  0.31327907360445484  1.0000
  O   O8        1.0  0.05372087409740401  0.8242972025463474  0.5177579672187653  1.0000
