data_image0
_chemical_formula_structural       NC9NC3SH6C7OCH9C6OCH7Zn2C4O8
_chemical_formula_sum              "N2 C31 S1 H22 O10 Zn2"
_cell_length_a       16.77567553997237
_cell_length_b       10.30083208314754
_cell_length_c       9.273891588657152
_cell_angle_alpha    86.0566932857514
_cell_angle_beta     90.06962488754225
_cell_angle_gamma    90.88775763152196

_space_group_name_H-M_alt    "P 1"
_space_group_IT_number       1

loop_
  _space_group_symop_operation_xyz
  'x, y, z'

loop_
  _atom_site_type_symbol
  _atom_site_label
  _atom_site_symmetry_multiplicity
  _atom_site_fract_x
  _atom_site_fract_y
  _atom_site_fract_z
  _atom_site_occupancy
  N   N1        1.0  0.7555002519271875  0.426973540475614  0.4174210396778135  1.0000
  C   C1        1.0  0.7006076867497679  0.476672149167948  0.4635798952855718  1.0000
  C   C2        1.0  0.632485224972823  0.5383448327940712  0.5208595033465884  1.0000
  C   C3        1.0  0.6342928679060199  0.6272836497587422  0.626336906346834  1.0000
  C   C4        1.0  0.5585466512925297  0.6710373147487544  0.6613009317383536  1.0000
  C   C5        1.0  0.4967856399176556  0.6163597185189287  0.5829407056087583  1.0000
  C   C6        1.0  0.4102570037940594  0.6425202249161459  0.5949780705329448  1.0000
  C   C7        1.0  0.35364183984622954  0.5624131668815818  0.530305594184572  1.0000
  C   C8        1.0  0.27196657870372076  0.5865538497229827  0.5411707145465756  1.0000
  C   C9        1.0  0.2146887987959005  0.5037658350733065  0.4749502100867986  1.0000
  N   N2        1.0  0.1686544566680593  0.43721613747495636  0.4217187086731855  1.0000
  C   C10       1.0  0.2460771914680308  0.6911136560966804  0.6165294185019927  1.0000
  C   C11       1.0  0.3016022703722746  0.7713753495689747  0.6806895432508828  1.0000
  C   C12       1.0  0.383118859212044  0.7476005426573835  0.6701513025685071  1.0000
  S   S1        1.0  0.5377186918416724  0.5133690590920996  0.4707449637226448  1.0000
  H   H1        1.0  0.6885387094528301  0.6595546247571055  0.6771267335792861  1.0000
  H   H2        1.0  0.5500287088952713  0.7395947898304661  0.7428427715093904  1.0000
  H   H3        1.0  0.3726208025629854  0.48064852530354246  0.4721128964014758  1.0000
  H   H4        1.0  0.1830647299052895  0.7106439816234442  0.6255016590500069  1.0000
  H   H5        1.0  0.28144376124740417  0.8525256461286026  0.7385300209859456  1.0000
  H   H6        1.0  0.42440430872913953  0.812639690378153  0.7198132958914789  1.0000
  C   C13       1.0  0.9621029576154085  0.050759975088842134  0.4197214074955755  1.0000
  C   C14       1.0  0.9403631494826256  0.05844479091237754  0.27313641293640245  1.0000
  C   C15       1.0  0.9284847178984618  0.9451475925313501  0.1997505707281424  1.0000
  C   C16       1.0  0.9403067759449248  0.8231813589904449  0.27275499137256554  1.0000
  C   C17       1.0  0.9620593669928273  0.8134200221557191  0.4194309507071565  1.0000
  C   C18       1.0  0.9726426263529372  0.9277327421070014  0.492134191231169  1.0000
  C   C19       1.0  0.907512584461958  0.9546154193973859  0.04187082076401194  1.0000
  O   O1        1.0  0.9785739104703083  0.9616220341885494  0.9602109781432048  1.0000
  C   C20       1.0  0.9596897751718996  0.9705750231394089  0.8117216197407351  1.0000
  H   H7        1.0  0.9325959987990238  0.15246839700922776  0.21543351017862156  1.0000
  H   H8        1.0  0.9325002003434455  0.7360544458519489  0.21479023520149476  1.0000
  H   H9        1.0  0.9894160934303082  0.9210431578612651  0.6051827231883715  1.0000
  H   H10       1.0  0.003969713201175786  0.5878045709168613  0.695693593159235  1.0000
  H   H11       1.0  0.8708829010308842  0.04278237390976814  0.017393496713654637  1.0000
  H   H12       1.0  0.8709159271978049  0.867691036074023  0.017063334261700144  1.0000
  H   H13       1.0  0.016046465908190918  0.9759948922626873  0.7489975242012363  1.0000
  H   H14       1.0  0.9258258697125242  0.06039894232788678  0.7813112256333232  1.0000
  H   H15       1.0  0.9258408256300622  0.8829143907684809  0.7809541999206155  1.0000
  C   C21       1.0  0.9633873567220366  0.4286831996860381  0.9963157288440261  1.0000
  C   C22       1.0  0.028670933608627935  0.4851504072306063  0.06554766382265909  1.0000
  C   C23       1.0  0.0894319307763951  0.5512022153890831  0.9863454205096667  1.0000
  C   C24       1.0  0.08512662014434169  0.5611175930126252  0.8348562117021938  1.0000
  C   C25       1.0  0.021517961884641727  0.503905623619046  0.7642998006922523  1.0000
  C   C26       1.0  0.9607749242275556  0.4354967512441533  0.8428365787344845  1.0000
  O   O2        1.0  0.15253843540038048  0.606016610277286  0.062188224898471096  1.0000
  C   C27       1.0  0.21818329780745516  0.6759853982596133  0.9957687156098731  1.0000
  H   H16       1.0  0.7737676268149946  0.34422471684163236  0.10539083574777663  1.0000
  H   H17       1.0  0.13104762990635277  0.6118431661202157  0.7703928981617012  1.0000
  H   H18       1.0  0.02087432002314648  0.5105823319417482  0.6472093841028879  1.0000
  H   H19       1.0  0.8343240518187742  0.37351664748583946  0.5661009409824871  1.0000
  H   H20       1.0  0.19677857401807297  0.7633302982818577  0.9311170630678252  1.0000
  H   H21       1.0  0.2514275894405871  0.6123615746284623  0.9257263706260188  1.0000
  H   H22       1.0  0.25899031158867647  0.7080363154410451  0.08102493961133428  1.0000
  Zn  Zn1       1.0  0.8747276081517406  0.4299259327440845  0.4186695876806863  1.0000
  Zn  Zn2       1.0  0.049427059555724906  0.4342532470688363  0.42048200133101465  1.0000
  C   C28       1.0  0.9612672605479918  0.4290356201363126  0.6828279823438241  1.0000
  C   C29       1.0  0.9628893143417679  0.435145246543343  0.15632376730333197  1.0000
  C   C30       1.0  0.9620812073760416  0.6692147083336433  0.4137421491858029  1.0000
  C   C31       1.0  0.9620753077530858  0.1949645973240304  0.4254096772813001  1.0000
  O   O3        1.0  0.029019698447239506  0.4389504964966411  0.21071173039437618  1.0000
  O   O4        1.0  0.027729719124466538  0.4285137186532503  0.6298151847389037  1.0000
  O   O5        1.0  0.02838609313432449  0.6224613597772464  0.412526460850579  1.0000
  O   O6        1.0  0.028363265157274498  0.24500286231556673  0.42800034558990685  1.0000
  O   O7        1.0  0.8957913429338654  0.6191763160220077  0.41115124279572446  1.0000
  O   O8        1.0  0.8951349690683141  0.42523023444464547  0.6284398892380327  1.0000
  O   O9        1.0  0.8964249537945714  0.435666953089287  0.2093347019983285  1.0000
  O   O10       1.0  0.8957685201683876  0.24171931048994316  0.4266234252605836  1.0000
