data_image0
_chemical_formula_structural       NC9NC3OH6C6OCH7C6OCH7Zn2C4O8
_chemical_formula_sum              "N2 C30 O11 H20 Zn2"
_cell_length_a       15.78231758774541
_cell_length_b       9.273888216677433
_cell_length_c       9.273891588657152
_cell_angle_alpha    86.27290680644057
_cell_angle_beta     89.76748324947235
_cell_angle_gamma    89.05820199757645

_space_group_name_H-M_alt    "P 1"
_space_group_IT_number       1

loop_
  _space_group_symop_operation_xyz
  'x, y, z'

loop_
  _atom_site_type_symbol
  _atom_site_label
  _atom_site_symmetry_multiplicity
  _atom_site_fract_x
  _atom_site_fract_y
  _atom_site_fract_z
  _atom_site_occupancy
  N   N1        1.0  0.7939097290946242  0.5550315885146471  0.418192588003816  1.0000
  C   C1        1.0  0.7458260252907796  0.4641436946467135  0.44460223620879646  1.0000
  C   C2        1.0  0.6861281876120258  0.35132972958030717  0.4773834179474335  1.0000
  C   C3        1.0  0.7064901106571915  0.2096164112616052  0.5184737275866651  1.0000
  C   C4        1.0  0.6300981805669115  0.14093733936776687  0.5384704448378421  1.0000
  C   C5        1.0  0.5677997867596666  0.2458218289693022  0.508104730122676  1.0000
  C   C6        1.0  0.4748041885860664  0.22643121262733132  0.5138207384783556  1.0000
  C   C7        1.0  0.4204727725244846  0.3453292684688849  0.4792142250808718  1.0000
  C   C8        1.0  0.33234447228183756  0.3294294999529698  0.48390916259041933  1.0000
  C   C9        1.0  0.27729953019736336  0.4517868734839015  0.44828660197980486  1.0000
  N   N2        1.0  0.23305637412815072  0.5501464026076857  0.41964923013554023  1.0000
  C   C10       1.0  0.2978671660120175  0.194454732951308  0.5232643756439439  1.0000
  C   C11       1.0  0.35126642130319186  0.07580253931170389  0.5578041770104823  1.0000
  C   C12       1.0  0.439211211879743  0.09126550289262793  0.5532368052826675  1.0000
  O   O1        1.0  0.6036449791454583  0.370122602739822  0.47200924074375483  1.0000
  H   H1        1.0  0.7691865464284454  0.16182508510167182  0.5322744157685102  1.0000
  H   H2        1.0  0.6219232609661509  0.02800985019642675  0.5712311324074999  1.0000
  H   H3        1.0  0.4465604852462873  0.45036352270849456  0.44858365055171007  1.0000
  H   H4        1.0  0.2298171020717853  0.18098843392897357  0.5272383878723523  1.0000
  H   H5        1.0  0.3244448516679124  0.9714863580039125  0.588225815186393  1.0000
  H   H6        1.0  0.4787610438290772  0.9972846926032438  0.5806039169801553  1.0000
  C   C13       1.0  0.015980020547266428  0.12908582516901523  0.417456503150866  1.0000
  C   C14       1.0  0.9966218103862998  0.2114022900864752  0.2886448320811923  1.0000
  C   C15       1.0  0.970035998290199  0.1458627601305429  0.16546424325311904  1.0000
  C   C16       1.0  0.9626532300780299  0.9950108509921236  0.17063191528467583  1.0000
  C   C17       1.0  0.9829073927901993  0.9114642980253825  0.2966738848273832  1.0000
  C   C18       1.0  0.010994172577935446  0.9760811105696082  0.42039775377787647  1.0000
  O   O2        1.0  0.9511772334510548  0.23437900653379162  0.04089195385554279  1.0000
  C   C19       1.0  0.9233383531264648  0.18256721018314948  0.9081499790854544  1.0000
  H   H7        1.0  0.021699248337764935  0.20890730604030036  0.7721907498011588  1.0000
  H   H8        1.0  0.9420488527144477  0.9409619682119447  0.07733983433026115  1.0000
  H   H9        1.0  0.9785058017767857  0.7950405131618768  0.29617931531926933  1.0000
  H   H10       1.0  0.018400156334814607  0.6792147391362905  0.6583379872907715  1.0000
  H   H11       1.0  0.8624766531811715  0.1252701212369292  0.924560369228407  1.0000
  H   H12       1.0  0.9721306141849038  0.10902615174234652  0.8650903696944027  1.0000
  H   H13       1.0  0.9132983761645742  0.275645266446674  0.8284249023110628  1.0000
  C   C20       1.0  0.01489776383902818  0.5487485429929653  0.9956431354394911  1.0000
  C   C21       1.0  0.08393323591289609  0.608890440887726  0.0646585404348794  1.0000
  C   C22       1.0  0.14809880106829088  0.679854780523669  0.985311952397702  1.0000
  C   C23       1.0  0.1434577246682971  0.6910360249774932  0.8338948134797844  1.0000
  C   C24       1.0  0.07620763641759964  0.6300010915500598  0.7635400832426945  1.0000
  C   C25       1.0  0.01207642934478881  0.5564183411198911  0.8422110936332672  1.0000
  O   O3        1.0  0.21483059168016894  0.7382467832661257  0.060946423218357415  1.0000
  C   C26       1.0  0.2841626918809963  0.8133690220830523  0.9943650684118555  1.0000
  H   H14       1.0  0.8138652097499063  0.4624136107579318  0.10568423790262664  1.0000
  H   H15       1.0  0.19194656646803832  0.745563436476308  0.769325824180576  1.0000
  H   H16       1.0  0.07548015579618034  0.6374414294208286  0.64648244982717  1.0000
  H   H17       1.0  0.8780513796984317  0.4925612857031558  0.5660956733612301  1.0000
  H   H18       1.0  0.26084221417608666  0.9112147775328807  0.9302329395588345  1.0000
  H   H19       1.0  0.31991585856639326  0.7414014086447938  0.9238210478468751  1.0000
  H   H20       1.0  0.32733593283288753  0.8473580392835196  0.07947219517695014  1.0000
  Zn  Zn1       1.0  0.920637956074868  0.553618052504538  0.41862124713090304  1.0000
  Zn  Zn2       1.0  0.10632814867325585  0.5515482748546212  0.41923231326043464  1.0000
  C   C27       1.0  0.012641664962455666  0.5492233734795885  0.6821716838348635  1.0000
  C   C28       1.0  0.014326456333915813  0.5559447522164218  0.15568203102406744  1.0000
  C   C29       1.0  0.011951400153360053  0.8159289815217838  0.41409781787943717  1.0000
  C   C30       1.0  0.015016667723265252  0.28923741288933835  0.4237559676025446  1.0000
  O   O4        1.0  0.08460321771079782  0.55756810423665  0.20962442091883293  1.0000
  O   O5        1.0  0.08329947097628468  0.5460280163913191  0.6286926602809852  1.0000
  O   O6        1.0  0.08274111846983095  0.7613961920056738  0.41222111893604896  1.0000
  O   O7        1.0  0.08516150715322124  0.3421999386660227  0.4260958540142632  1.0000
  O   O8        1.0  0.9418045342279698  0.7629663894009511  0.41175770616097096  1.0000
  O   O9        1.0  0.9423628767872364  0.5475999457792993  0.628229176666754  1.0000
  O   O10       1.0  0.9436666296494539  0.55913996766713  0.20915920412087252  1.0000
  O   O11       1.0  0.9442249187889741  0.34377179276059056  0.4256307452497053  1.0000
