data_image0
_chemical_formula_structural       NC9NC3OH6C6NCOCH7C6SCNH5Zn2C4O8
_chemical_formula_sum              "N4 C31 O10 H18 S1 Zn2"
_cell_length_a       15.78231758774541
_cell_length_b       10.300268703208218
_cell_length_c       10.302218930750287
_cell_angle_alpha    85.55128926110262
_cell_angle_beta     90.10197945546608
_cell_angle_gamma    89.61162997741629

_space_group_name_H-M_alt    "P 1"
_space_group_IT_number       1

loop_
  _space_group_symop_operation_xyz
  'x, y, z'

loop_
  _atom_site_type_symbol
  _atom_site_label
  _atom_site_symmetry_multiplicity
  _atom_site_fract_x
  _atom_site_fract_y
  _atom_site_fract_z
  _atom_site_occupancy
  N   N1        1.0  0.7972429768357211  0.41342688525107874  0.570260577942963  1.0000
  C   C1        1.0  0.7487354184139002  0.3313638695124099  0.5943347627541842  1.0000
  C   C2        1.0  0.6885114754956241  0.22950371970517947  0.6242170281421877  1.0000
  C   C3        1.0  0.7082122153959444  0.10155096987883683  0.6616745788221896  1.0000
  C   C4        1.0  0.6315001412764468  0.039540046439678005  0.6799025069241293  1.0000
  C   C5        1.0  0.5696912599135923  0.13423971870355578  0.6522209025056251  1.0000
  C   C6        1.0  0.47660551682010305  0.11673118182888252  0.657430551664899  1.0000
  C   C7        1.0  0.4228283798369111  0.22408515680742513  0.625884992292354  1.0000
  C   C8        1.0  0.3346261908916495  0.20972857517034327  0.6301639386358644  1.0000
  C   C9        1.0  0.28015162271136906  0.32020607107284227  0.5976923004553605  1.0000
  N   N2        1.0  0.23636696864360152  0.40901572445113693  0.5715880055457663  1.0000
  C   C10       1.0  0.29951989981097854  0.08785823689508333  0.6660374268810811  1.0000
  C   C11       1.0  0.35236603899950103  0.9807262125382961  0.6975221227166557  1.0000
  C   C12       1.0  0.44038268346931475  0.99468839605456  0.6933594543119275  1.0000
  O   O1        1.0  0.606116207489799  0.24647115579873002  0.6193171680282663  1.0000
  H   H1        1.0  0.7706854778663578  0.058400720611547996  0.6742557715495008  1.0000
  H   H2        1.0  0.6227984015476554  0.9375778394046547  0.7097666672220992  1.0000
  H   H3        1.0  0.4494055358266237  0.31892189013357153  0.5979643371171717  1.0000
  H   H4        1.0  0.23140724768831933  0.07569895865208309  0.669659350015746  1.0000
  H   H5        1.0  0.32505837383911373  0.8865378322707542  0.7252523212938229  1.0000
  H   H6        1.0  0.47949444073813036  0.9098322868348788  0.7183057985357952  1.0000
  C   C13       1.0  0.01689509957923718  0.02987276211665035  0.5709322277821025  1.0000
  C   C14       1.0  0.03115193612730294  0.03913731937544097  0.43601139301524383  1.0000
  C   C15       1.0  0.039491875334392884  0.9264936967846354  0.36830553792816434  1.0000
  C   C16       1.0  0.03096025891273935  0.803979720774794  0.43604320391373563  1.0000
  C   C17       1.0  0.01672292048359792  0.7925598127403752  0.5709275771177411  1.0000
  C   C18       1.0  0.010084500965912508  0.9061052111067839  0.6377398274085573  1.0000
  N   N3        1.0  0.052769007210026204  0.9344020243378063  0.22984011070807722  1.0000
  C   C19       1.0  0.10249757347354649  0.033021362684112945  0.16022631185019387  1.0000
  O   O2        1.0  0.15035376285981406  0.10552642438324566  0.22032630344252377  1.0000
  C   C20       1.0  0.10250247886032454  0.04393066332569484  0.014782782809347864  1.0000
  H   H7        1.0  0.03409189887169273  0.1339655150218464  0.3832013313474396  1.0000
  H   H8        1.0  0.036209088144291364  0.7175733002155835  0.38291254406255026  1.0000
  H   H9        1.0  0.9991117227229337  0.8981501874408018  0.7418059496729215  1.0000
  H   H10       1.0  0.0294192139385172  0.859220932385559  0.17760192059248814  1.0000
  H   H11       1.0  0.03764465165677564  0.02755303679342669  0.9777769578380497  1.0000
  H   H12       1.0  0.12350144248888067  0.1423857415247478  0.9769877395629057  1.0000
  H   H13       1.0  0.14622985900209426  0.9697716390327764  0.9791744881140606  1.0000
  C   C21       1.0  0.016730001414902756  0.41127789471566145  0.1896545026048213  1.0000
  C   C22       1.0  0.09654748076857572  0.3499682456724569  0.1936747971960584  1.0000
  C   C23       1.0  0.13622699183047404  0.3190527170545212  0.07869793529582014  1.0000
  C   C24       1.0  0.09675411916946514  0.3498053360315348  0.9585211758633073  1.0000
  C   C25       1.0  0.01688801803789253  0.4111546453553405  0.952205311761901  1.0000
  C   C26       1.0  0.9773001418223287  0.44150671911120437  0.06834192692895735  1.0000
  S   S1        1.0  0.23825993505974574  0.24129397481100148  0.0852688114299347  1.0000
  C   C27       1.0  0.19397838914576215  0.0839488009615954  0.09739861474434797  1.0000
  N   N4        1.0  0.16492246489087248  0.980802015264946  0.10535064123760973  1.0000
  H   H14       1.0  0.9863651744892976  0.4346714472760224  0.5154546257863613  1.0000
  H   H15       1.0  0.1281751047034312  0.32575328029016903  0.2858423740457856  1.0000
  H   H16       1.0  0.12852337877347753  0.3254786451299485  0.8704219609241819  1.0000
  H   H17       1.0  0.9157397825433027  0.48877331890101683  0.06439457727360831  1.0000
  H   H18       1.0  0.8663892797275444  0.526916436440078  0.7330733084078185  1.0000
  Zn  Zn1       1.0  0.9239646739616613  0.41215044952864827  0.5706511365253986  1.0000
  Zn  Zn2       1.0  0.10964524761715805  0.4102815595550908  0.5712080607438688  1.0000
  C   C28       1.0  0.016857437998975194  0.40600456907345234  0.8080669096395959  1.0000
  C   C29       1.0  0.016754510862472042  0.41642905811335984  0.33379242113650287  1.0000
  C   C30       1.0  0.01675004409769354  0.6483965867553088  0.5657545514185143  1.0000
  C   C31       1.0  0.016861841770492863  0.17403548083896148  0.5761048483986833  1.0000
  O   O3        1.0  0.08722754775567493  0.4174429361627207  0.3823777731847986  1.0000
  O   O4        1.0  0.08731166029796505  0.4035712671676653  0.7599038764383534  1.0000
  O   O5        1.0  0.08722398874494014  0.5993058962538464  0.5642349299173468  1.0000
  O   O6        1.0  0.08731515592622546  0.22170831701972293  0.5780466221649159  1.0000
  O   O7        1.0  0.9462947022889248  0.6007236927031909  0.5638125749074709  1.0000
  O   O8        1.0  0.9463823734715423  0.40499062384872725  0.7594814521904971  1.0000
  O   O9        1.0  0.9462982606723155  0.4188622478419515  0.3819537879195418  1.0000
  O   O10       1.0  0.946385868861672  0.2231276193949454  0.5776227342436684  1.0000
