data_image0
_chemical_formula_structural       NC9NC3OCH8C12NCOCH13C13NH13Zn2C4O8
_chemical_formula_sum              "N4 C44 O10 H34 Zn2"
_cell_length_a       17.728193572023454
_cell_length_b       10.299155265289647
_cell_length_c       10.299780419254978
_cell_angle_alpha    85.55647119552991
_cell_angle_beta     90.69152596638013
_cell_angle_gamma    88.43175330785004

_space_group_name_H-M_alt    "P 1"
_space_group_IT_number       1

loop_
  _space_group_symop_operation_xyz
  'x, y, z'

loop_
  _atom_site_type_symbol
  _atom_site_label
  _atom_site_symmetry_multiplicity
  _atom_site_fract_x
  _atom_site_fract_y
  _atom_site_fract_z
  _atom_site_occupancy
  N   N1        1.0  0.7104850774750384  0.3867327480147879  0.5848461294767423  1.0000
  C   C1        1.0  0.6498763920781325  0.34930444305183395  0.5978614127236853  1.0000
  C   C2        1.0  0.5744269051555764  0.30277606916965905  0.6140600847488424  1.0000
  C   C3        1.0  0.5625457701009521  0.174729516537925  0.6235160410491317  1.0000
  C   C4        1.0  0.48584042167269964  0.12527714602966084  0.6384800690739965  1.0000
  C   C5        1.0  0.427677961601282  0.2079574653972711  0.6559261358087762  1.0000
  C   C6        1.0  0.3496327856464842  0.16291043100704397  0.6776722512062205  1.0000
  C   C7        1.0  0.2882838666157105  0.24837861428298003  0.6421878739682212  1.0000
  C   C8        1.0  0.21401201376126594  0.2090769243498396  0.6623462323672709  1.0000
  C   C9        1.0  0.1516842525105165  0.2970816872499922  0.6247868673614339  1.0000
  N   N2        1.0  0.10158614268441382  0.36782898987842194  0.5945926883671029  1.0000
  C   C10       1.0  0.20045749323165055  0.0841874109890419  0.7190430504816838  1.0000
  C   C11       1.0  0.2609075105733293  0.9990371013837458  0.7559358510139874  1.0000
  C   C12       1.0  0.3350757828944152  0.037849151771612626  0.7359072093313731  1.0000
  O   O1        1.0  0.44101526389177365  0.3417538619508455  0.6545933035652659  1.0000
  C   C13       1.0  0.5087379286322328  0.39912873963934703  0.6059695059711472  1.0000
  H   H1        1.0  0.6094831523174291  0.10526261510502755  0.6214343614496938  1.0000
  H   H2        1.0  0.47820320097341834  0.02161895093618236  0.6365265519271135  1.0000
  H   H3        1.0  0.2981668338475681  0.3452026872983779  0.5977358467298026  1.0000
  H   H4        1.0  0.14324529276086592  0.05289991914568514  0.7351913563402678  1.0000
  H   H5        1.0  0.2502876880519119  0.9028720456051308  0.8008488135056926  1.0000
  H   H6        1.0  0.3806122001158458  0.9706198505180383  0.7683450048770255  1.0000
  H   H7        1.0  0.49927703055870054  0.435039556912445  0.5024370208035365  1.0000
  H   H8        1.0  0.5216002565596121  0.4835334517716568  0.6625261724018299  1.0000
  C   C14       1.0  0.9061235079546842  0.9958791656820072  0.5898403020215113  1.0000
  C   C15       1.0  0.8932506018148734  0.006184138312384847  0.4546002180612954  1.0000
  C   C16       1.0  0.8866506952184791  0.8942748101119444  0.3859111068005199  1.0000
  C   C17       1.0  0.8930702020687011  0.7709330487798672  0.454287951008386  1.0000
  C   C18       1.0  0.9059549899519442  0.7586722785142201  0.5896099180658525  1.0000
  C   C19       1.0  0.9124056767323895  0.8716661393619423  0.6565530786626935  1.0000
  C   C20       1.0  0.8730336464942982  0.9061498511377649  0.2428434513392366  1.0000
  C   C21       1.0  0.9113165067984792  0.9983999115373262  0.1623834589180875  1.0000
  C   C22       1.0  0.8985081763307801  0.00944393009141131  0.027747416816303234  1.0000
  C   C23       1.0  0.8476301426337325  0.9275536172984294  0.9707313734515878  1.0000
  C   C24       1.0  0.8084254848924864  0.8371643884958352  0.05110023744888271  1.0000
  C   C25       1.0  0.8212613061092254  0.8258630169681535  0.1856996308115746  1.0000
  N   N3        1.0  0.83239369632027  0.9385133886438817  0.8327966342931266  1.0000
  C   C26       1.0  0.8875095307382902  0.9727732746071015  0.7359567378882204  1.0000
  O   O2        1.0  0.956736915868275  0.9719650849365487  0.7655391380094364  1.0000
  C   C27       1.0  0.8634532344841639  0.00036496747327574764  0.5968234109458228  1.0000
  H   H9        1.0  0.9110984034468075  0.31939048632520634  0.6418543128649951  1.0000
  H   H10       1.0  0.887286909765439  0.10151082527803167  0.402644228232935  1.0000
  H   H11       1.0  0.8890177803951825  0.6843230712806686  0.4015608163809532  1.0000
  H   H12       1.0  0.9223373588025613  0.863002710665796  0.7608661994915775  1.0000
  H   H13       1.0  0.9307262547390236  0.5282255395212392  0.8449035014398019  1.0000
  H   H14       1.0  0.9516083965666072  0.06150593715028618  0.20347813047175123  1.0000
  H   H15       1.0  0.9274671348748287  0.08349218052679319  0.9688912722100285  1.0000
  H   H16       1.0  0.768061289420337  0.7747657965481598  0.009136766002942444  1.0000
  H   H17       1.0  0.7898773226301912  0.7555484346263012  0.24532825275135986  1.0000
  H   H18       1.0  0.779245216654703  0.9122097290340698  0.8004000474378398  1.0000
  H   H19       1.0  0.8089789277578415  0.0564430619214711  0.5910124213440207  1.0000
  H   H20       1.0  0.8564761241899284  0.9070867542418374  0.5514274470537713  1.0000
  H   H21       1.0  0.9064215703515951  0.05837225352668661  0.5425013535593894  1.0000
  C   C28       1.0  0.9060906420149758  0.37718834013145375  0.20837226959891703  1.0000
  C   C29       1.0  0.9607067054933038  0.4735850503518948  0.20104241306645815  1.0000
  C   C30       1.0  0.9883228884061911  0.522528132502972  0.08018291773204546  1.0000
  C   C31       1.0  0.9606030211235735  0.4737623074324919  0.9657396022287705  1.0000
  C   C32       1.0  0.905987854723487  0.37736303431813195  0.9710779285117983  1.0000
  C   C33       1.0  0.8790354185402619  0.3296193859019563  0.09285602200766754  1.0000
  C   C34       1.0  0.046104539054436566  0.6245048762824243  0.07352019961540335  1.0000
  C   C35       1.0  0.04097997730212799  0.7293380488313643  0.9775351843303168  1.0000
  C   C36       1.0  0.09538986646879465  0.8252321441858818  0.9713503932011689  1.0000
  C   C37       1.0  0.15554653536600846  0.8186211187555821  0.061525117155396325  1.0000
  C   C38       1.0  0.16139459641414527  0.7134741178575996  0.15647147280439255  1.0000
  C   C39       1.0  0.10700031624553953  0.6175545672205436  0.16282943091730195  1.0000
  C   C40       1.0  0.2151159761735475  0.9199674053472304  0.05252329490884877  1.0000
  N   N4        1.0  0.27297457694341687  0.8845164617937773  0.9610969817374536  1.0000
  H   H22       1.0  0.8853100444357481  0.3404083307754726  0.5386228853214662  1.0000
  H   H23       1.0  0.9811543920015472  0.5121055295519639  0.2894101518898875  1.0000
  H   H24       1.0  0.982471680639158  0.5098630593521671  0.8724660721359572  1.0000
  H   H25       1.0  0.8369018641398389  0.25525265462522406  0.09774211507110242  1.0000
  H   H26       1.0  0.8851626483960153  0.34065418109659396  0.645656402246801  1.0000
  H   H27       1.0  0.9944368271548122  0.7379345847975853  0.9080717045270932  1.0000
  H   H28       1.0  0.09051181924524256  0.9048739464944366  0.8963660231087479  1.0000
  H   H29       1.0  0.20821782713416193  0.70551635223286  0.2254152146512623  1.0000
  H   H30       1.0  0.1131938656077043  0.5368319466670362  0.23638099845596575  1.0000
  H   H31       1.0  0.18901935471540804  0.016262368647921747  0.018564233771211084  1.0000
  H   H32       1.0  0.24113832409012706  0.9300208066985334  0.15002512356270348  1.0000
  H   H33       1.0  0.3110391566147119  0.9603738846788047  0.9520830317605925  1.0000
  H   H34       1.0  0.30326816641864385  0.8027428747297582  0.0026482047158011886  1.0000
  Zn  Zn1       1.0  0.8233484078654474  0.3812740628272775  0.5876662762825164  1.0000
  Zn  Zn2       1.0  0.9887228387989682  0.3732770728757489  0.5917831819839433  1.0000
  C   C41       1.0  0.9060067223619662  0.37215600350573097  0.8269117779207642  1.0000
  C   C42       1.0  0.9060663298068176  0.38239668365934154  0.35253785226834183  1.0000
  C   C43       1.0  0.905983635727394  0.6144871185053187  0.58447842731621  1.0000
  C   C44       1.0  0.9060893603461102  0.14006401096840326  0.5949712711750597  1.0000
  O   O3        1.0  0.9688169063428326  0.38110416909017975  0.4024834847505592  1.0000
  O   O4        1.0  0.9687715126675218  0.3673780078474986  0.7800904080728398  1.0000
  O   O5        1.0  0.9687520237183497  0.563063489125021  0.5843237407341804  1.0000
  O   O6        1.0  0.968836338871986  0.18541869981019832  0.5982500533110263  1.0000
  O   O7        1.0  0.8432348513582537  0.5691324386232204  0.5811994035437049  1.0000
  O   O8        1.0  0.8432543399685284  0.3734485177674416  0.7769660011684716  1.0000
  O   O9        1.0  0.8432997339144975  0.387174633390168  0.399357516526204  1.0000
  O   O10       1.0  0.8433191664294928  0.19148915484303797  0.5951241824531346  1.0000
