data_image0
_chemical_formula_structural       NC5NC3F3CH3C6BrH5C6NH7Zn2C4O8
_chemical_formula_sum              "N3 C25 F3 H15 Br1 Zn2 O8"
_cell_length_a       13.85151926108384
_cell_length_b       9.276564384272257
_cell_length_c       9.274774538082514
_cell_angle_alpha    85.01137938942293
_cell_angle_beta     90.34967317275357
_cell_angle_gamma    90.58593481197379

_space_group_name_H-M_alt    "P 1"
_space_group_IT_number       1

loop_
  _space_group_symop_operation_xyz
  'x, y, z'

loop_
  _atom_site_type_symbol
  _atom_site_label
  _atom_site_symmetry_multiplicity
  _atom_site_fract_x
  _atom_site_fract_y
  _atom_site_fract_z
  _atom_site_occupancy
  N   N1        1.0  0.9134749484639904  0.5920955805149095  0.40670175211468207  1.0000
  C   C1        1.0  0.8413351161401839  0.5824716584531429  0.46924873364635133  1.0000
  C   C2        1.0  0.7515875032784473  0.5704981764056967  0.5470661264188539  1.0000
  C   C3        1.0  0.6638200869593391  0.5803773692407024  0.47144574635177317  1.0000
  C   C4        1.0  0.5765355136037239  0.5704981634352198  0.5470661063481337  1.0000
  C   C5        1.0  0.48631586451068237  0.5824716737827416  0.46924882780960814  1.0000
  N   N2        1.0  0.41379676301651136  0.5920955417084377  0.40670185772230494  1.0000
  C   C6        1.0  0.5770029725095983  0.549740288937558  0.6984839408913306  1.0000
  C   C7        1.0  0.6647627169543202  0.5366603890720294  0.7753705946943052  1.0000
  C   C8        1.0  0.6653133482471807  0.519663304729366  0.9385945277307548  1.0000
  F   F1        1.0  0.7459436801760658  0.44440120741591715  0.9903196267741872  1.0000
  F   F2        1.0  0.5840748657062095  0.44440117595217754  0.9903197262123374  1.0000
  F   F3        1.0  0.6664514974886022  0.6550228308856614  0.9902593846227714  1.0000
  C   C9        1.0  0.7520732987775934  0.5497401935160551  0.6984839606115667  1.0000
  H   H1        1.0  0.6634521759380394  0.5966090474141645  0.35421255302599564  1.0000
  H   H2        1.0  0.5090767074538695  0.5440601076104064  0.7562074913080004  1.0000
  H   H3        1.0  0.8203934602538723  0.5440600270713845  0.7562074502876628  1.0000
  C   C10       1.0  0.1607333047124449  0.16861139980353834  0.40707084462796383  1.0000
  C   C11       1.0  0.147830119445844  0.25325866828444976  0.2751614813146357  1.0000
  C   C12       1.0  0.14391655311003082  0.18940705633616317  0.14448421825578306  1.0000
  C   C13       1.0  0.15287472704699104  0.040010767136503526  0.14323502685461453  1.0000
  C   C14       1.0  0.16406912637058424  0.9536875290086806  0.2731496976987245  1.0000
  C   C15       1.0  0.16654761110862593  0.015568517769132031  0.4063451575174204  1.0000
  Br  Br1       1.0  0.14822847823297042  0.9532135082962765  0.963922990003713  1.0000
  H   H4        1.0  0.1333687861859516  0.4291217874636555  0.641709699990676  1.0000
  H   H5        1.0  0.14305591933342443  0.36993656389587715  0.27269067041623085  1.0000
  H   H6        1.0  0.1348361909374427  0.25650219044255596  0.043953125099718944  1.0000
  H   H7        1.0  0.1685234307354615  0.8374746264281102  0.2700380668066866  1.0000
  H   H8        1.0  0.2207097613522171  0.7156796187066201  0.6311278166988632  1.0000
  C   C16       1.0  0.1619332015016306  0.5957783755331771  0.9828885504032643  1.0000
  C   C17       1.0  0.23092470991767478  0.6808798448094011  0.04955215352132902  1.0000
  C   C18       1.0  0.3041658018541429  0.7541020813350143  0.9687245084270883  1.0000
  C   C19       1.0  0.30900678153470373  0.7425549378435444  0.8197569868221263  1.0000
  C   C20       1.0  0.2403468151626562  0.6606302857909399  0.7513880993917832  1.0000
  C   C21       1.0  0.16534770131731658  0.5884015310837344  0.830527497286345  1.0000
  N   N3        1.0  0.37426423364931843  0.8390029220717159  0.03839352867723412  1.0000
  H   H9        1.0  0.015692333560186403  0.31387178217076483  0.10905037959124897  1.0000
  H   H10       1.0  0.2292338726436367  0.6877193645907773  0.16556642287704193  1.0000
  H   H11       1.0  0.3655488060444039  0.7982721760839653  0.756178484291187  1.0000
  H   H12       1.0  0.24462424100707944  0.6566188955185492  0.6352184870313581  1.0000
  H   H13       1.0  0.06391451005551875  0.40291771861843223  0.5646046230439157  1.0000
  H   H14       1.0  0.3715228615666854  0.8480463242099188  0.14975570327038934  1.0000
  H   H15       1.0  0.4294050317233719  0.8935861136750345  0.9791046822816294  1.0000
  Zn  Zn1       1.0  0.0578570238566545  0.5920916470492974  0.40671010464519264  1.0000
  Zn  Zn2       1.0  0.26941463682160394  0.5920876101917214  0.40670528280591545  1.0000
  C   C22       1.0  0.16466070065558788  0.5840509272575889  0.6703105101753628  1.0000
  C   C23       1.0  0.16261328328710478  0.6001301482816142  0.1431050173190236  1.0000
  C   C24       1.0  0.16542044348953122  0.8555256676225156  0.4007311416559396  1.0000
  C   C25       1.0  0.16185345667904796  0.32865367463904827  0.41268446427017413  1.0000
  O   O1        1.0  0.2431264933352118  0.6015828195848927  0.19687330273880965  1.0000
  O   O2        1.0  0.24471481459589117  0.5825941077735823  0.616538150564001  1.0000
  O   O3        1.0  0.2453272403073814  0.8018133808454084  0.3988509019057844  1.0000
  O   O4        1.0  0.24251399506834714  0.3823635577723583  0.41456044317629237  1.0000
  O   O5        1.0  0.08475759341566105  0.8018156994716745  0.3988549442688687  1.0000
  O   O6        1.0  0.08414517928403376  0.5825981596805001  0.6165421144894103  1.0000
  O   O7        1.0  0.08255685075273392  0.6015868363392134  0.19687553150549597  1.0000
  O   O8        1.0  0.0819443528469932  0.38236756327040067  0.4145627801577654  1.0000
