data_image0
_chemical_formula_structural       NC9NC3OH6C9H9C8H6Zn2C4O8
_chemical_formula_sum              "N2 C33 O9 H21 Zn2"
_cell_length_a       15.78231758774541
_cell_length_b       9.272676604525723
_cell_length_c       9.275144076552241
_cell_angle_alpha    86.20425915631827
_cell_angle_beta     90.54614249944106
_cell_angle_gamma    90.18380166211226

_space_group_name_H-M_alt    "P 1"
_space_group_IT_number       1

loop_
  _space_group_symop_operation_xyz
  'x, y, z'

loop_
  _atom_site_type_symbol
  _atom_site_label
  _atom_site_symmetry_multiplicity
  _atom_site_fract_x
  _atom_site_fract_y
  _atom_site_fract_z
  _atom_site_occupancy
  N   N1        1.0  0.7992405618126127  0.5583241090515665  0.41954021887234494  1.0000
  C   C1        1.0  0.7503180855556372  0.467385130327177  0.4458683621596429  1.0000
  C   C2        1.0  0.6895791305253713  0.35450775570408255  0.47854837650320525  1.0000
  C   C3        1.0  0.7086325296162902  0.21271497345555043  0.5195115992102188  1.0000
  C   C4        1.0  0.6316071067709645  0.14399721308379076  0.5394467292721958  1.0000
  C   C5        1.0  0.570277540983733  0.2489404169986982  0.5091750757093294  1.0000
  C   C6        1.0  0.4771036450169615  0.22953872722456947  0.5148736986584113  1.0000
  C   C7        1.0  0.42386903561228206  0.3485037352448721  0.48037380626179704  1.0000
  C   C8        1.0  0.3355945997287896  0.332594869764965  0.4850544885498056  1.0000
  C   C9        1.0  0.2816783024392984  0.4550211630780099  0.44954165067842305  1.0000
  N   N2        1.0  0.2383424196132041  0.5534360978741806  0.4209924816893076  1.0000
  C   C10       1.0  0.29987273695678607  0.19754394914349982  0.5242886668026221  1.0000
  C   C11       1.0  0.3521774923176102  0.07882493139365443  0.5587220678446001  1.0000
  C   C12       1.0  0.44026439253791994  0.09429674505262751  0.5541685596543504  1.0000
  O   O1        1.0  0.6072700457084426  0.3733110064428051  0.47319105564565067  1.0000
  H   H1        1.0  0.7708872277369487  0.16489697003570014  0.5332694263138922  1.0000
  H   H2        1.0  0.6223895952236509  0.0310063650162149  0.572106145424436  1.0000
  H   H3        1.0  0.4509251915893864  0.453597261723187  0.44983741800832194  1.0000
  H   H4        1.0  0.231698884670467  0.18406995050903197  0.5282506054820741  1.0000
  H   H5        1.0  0.324394104009946  0.9744498820564038  0.5890501636744558  1.0000
  H   H6        1.0  0.47894737751578914  0.0002629857587141984  0.5814513952568774  1.0000
  C   C13       1.0  0.016386074954497284  0.13240541963676633  0.4184169977781118  1.0000
  C   C14       1.0  0.9830333464405343  0.19772255629311575  0.5376854623882508  1.0000
  C   C15       1.0  0.9574493808941654  0.1147421886825768  0.6605024996787798  1.0000
  C   C16       1.0  0.9643933508524498  0.9639699329226608  0.6681839092992867  1.0000
  C   C17       1.0  0.9963526305117536  0.8972107638069476  0.5478002701305456  1.0000
  C   C18       1.0  0.02120501561776189  0.9793436919413324  0.42212814452914027  1.0000
  C   C19       1.0  0.9358534151247779  0.8816539904052856  0.8065563362429624  1.0000
  C   C20       1.0  0.8929632715893134  0.7359351666655709  0.792062607457444  1.0000
  C   C21       1.0  0.982718556020211  0.7428122274968488  0.8533504125346452  1.0000
  H   H7        1.0  0.03408659831308866  0.42935803960503965  0.1822704184158752  1.0000
  H   H8        1.0  0.978561964604041  0.31429387442316337  0.5375321059430536  1.0000
  H   H9        1.0  0.9327764116446731  0.16910606551219656  0.7509898277452451  1.0000
  H   H10       1.0  0.04152484092818031  0.8997971893142562  0.06925009798428872  1.0000
  H   H11       1.0  0.9122967916779111  0.9426832348265766  0.8972350455645283  1.0000
  H   H12       1.0  0.888512560047835  0.69595459537652  0.682160287347179  1.0000
  H   H13       1.0  0.8442510329572658  0.7082853269144661  0.8750595906768182  1.0000
  H   H14       1.0  0.03276397600753578  0.7068815117024976  0.7807621875054225  1.0000
  H   H15       1.0  0.9864618729951569  0.7191758015867783  0.9721862043495184  1.0000
  C   C22       1.0  0.016782987209735794  0.552945840205233  0.9969675312074471  1.0000
  C   C23       1.0  0.9620746822373815  0.6476077061609975  0.06317064690605156  1.0000
  C   C24       1.0  0.914205722409162  0.7493388839712125  0.9805186655204596  1.0000
  C   C25       1.0  0.920180598816682  0.7584882064056062  0.8301481532487576  1.0000
  C   C26       1.0  0.9731293041328213  0.6637401686517599  0.7621829238904163  1.0000
  C   C27       1.0  0.02080807536413287  0.5588033249810471  0.8435776389146548  1.0000
  C   C28       1.0  0.8711035834730562  0.8641972355215449  0.7451395575858375  1.0000
  C   C29       1.0  0.8300164454214317  0.9527005160740002  0.6739512874520295  1.0000
  H   H16       1.0  0.19184592240962173  0.361681626003169  0.11532462135240173  1.0000
  H   H17       1.0  0.9578227329278735  0.6452307161480639  0.17981613137618102  1.0000
  H   H18       1.0  0.8731041668005686  0.821904944435101  0.03413570962494684  1.0000
  H   H19       1.0  0.975592497130022  0.6697053794501453  0.645132603618841  1.0000
  H   H20       1.0  0.13681518666334236  0.4254671092989146  0.5735710755184282  1.0000
  H   H21       1.0  0.7939504643351759  0.030387518355041714  0.6114612861418713  1.0000
  Zn  Zn1       1.0  0.9259558868337895  0.5569097401828336  0.4199676111356929  1.0000
  Zn  Zn2       1.0  0.11162705515595944  0.5548387785455287  0.42057682156474496  1.0000
  C   C30       1.0  0.020012668019259827  0.551951236036198  0.6835249844827802  1.0000
  C   C31       1.0  0.017572312519327223  0.5597990805907478  0.1570196043260128  1.0000
  C   C32       1.0  0.020262438434097918  0.8192146481282314  0.4156823862700232  1.0000
  C   C33       1.0  0.01732246925529424  0.2925339371663096  0.4248622715913317  1.0000
  O   O2        1.0  0.08829842225250584  0.5613068802422645  0.2109657067740056  1.0000
  O   O3        1.0  0.09020667074148786  0.5488705336591504  0.6300408389324088  1.0000
  O   O4        1.0  0.09040742078519058  0.7646891398954485  0.413756049298454  1.0000
  O   O5        1.0  0.08809760839664466  0.34548828428078293  0.4272503881630927  1.0000
  O   O6        1.0  0.9494852702326197  0.7662602351558143  0.41329404432187666  1.0000
  O   O7        1.0  0.9492845296776277  0.5504433609601564  0.6295787646878006  1.0000
  O   O8        1.0  0.9473762727193137  0.5628796452993259  0.21050189921384166  1.0000
  O   O9        1.0  0.9471754593151269  0.34706103977126235  0.42678668863232816  1.0000
