data_image0
_chemical_formula_structural       NC10NC2SH6C10IC2H9C10SC3H12Zn2C4O8
_chemical_formula_sum              "N2 C41 S2 H27 I1 Zn2 O8"
_cell_length_a       18.726821288119407
_cell_length_b       10.299770258652044
_cell_length_c       10.299154459856256
_cell_angle_alpha    85.57273194020131
_cell_angle_beta     89.97054072504915
_cell_angle_gamma    90.7344844494229

_space_group_name_H-M_alt    "P 1"
_space_group_IT_number       1

loop_
  _space_group_symop_operation_xyz
  'x, y, z'

loop_
  _atom_site_type_symbol
  _atom_site_label
  _atom_site_symmetry_multiplicity
  _atom_site_fract_x
  _atom_site_fract_y
  _atom_site_fract_z
  _atom_site_occupancy
  N   N1        1.0  0.6730498900824421  0.43643224703272016  0.5662307133003355  1.0000
  C   C1        1.0  0.6137908792984313  0.40307959155663686  0.5690509399815895  1.0000
  C   C2        1.0  0.5402505036153061  0.3616935440304878  0.5725500992735946  1.0000
  C   C3        1.0  0.5159090141731633  0.23371964287916386  0.5822878820507145  1.0000
  C   C4        1.0  0.44128282855483514  0.22268054909780854  0.5831684374973032  1.0000
  C   C5        1.0  0.406674649052609  0.34252806365496813  0.5741569684952295  1.0000
  C   C6        1.0  0.3283224471625988  0.36376331357330827  0.5724243287076991  1.0000
  C   C7        1.0  0.2799043224605349  0.2604187136823106  0.6044987585106976  1.0000
  C   C8        1.0  0.20628919715894803  0.28155868976114196  0.6026270434291885  1.0000
  C   C9        1.0  0.1798907130820009  0.40601519291975996  0.5688952823556426  1.0000
  C   C10       1.0  0.10408830352200632  0.42757989649008493  0.5670304452943076  1.0000
  N   N2        1.0  0.04314972517547049  0.4449161221714428  0.5655310680538324  1.0000
  C   C11       1.0  0.2274036768023215  0.5094813608075185  0.5371793153545243  1.0000
  C   C12       1.0  0.3010366517266175  0.4886703171443324  0.5390171671818085  1.0000
  S   S1        1.0  0.469993729426816  0.461277063324087  0.5648359239350016  1.0000
  H   H1        1.0  0.5508188051986578  0.1505305184942658  0.5881959216253059  1.0000
  H   H2        1.0  0.4141839144923725  0.12914748458224512  0.5888974804898324  1.0000
  H   H3        1.0  0.2983948499487646  0.16328450946667084  0.6323677203309814  1.0000
  H   H4        1.0  0.1699661051761748  0.20078409266931008  0.6278036088598185  1.0000
  H   H5        1.0  0.2075579689625724  0.6063173592579996  0.5109117517462889  1.0000
  H   H6        1.0  0.3364043891918511  0.5705755274438348  0.5134545494740952  1.0000
  C   C13       1.0  0.8580359237272415  0.05930744109491458  0.5658779203471604  1.0000
  C   C14       1.0  0.8633692661773538  0.06896510930721678  0.429468584426238  1.0000
  C   C15       1.0  0.8661401459297071  0.9567210126983559  0.36035789773929805  1.0000
  C   C16       1.0  0.863505314843127  0.8336804365169354  0.42948594386622796  1.0000
  C   C17       1.0  0.8581705063237979  0.8220310217599798  0.5658951145455848  1.0000
  C   C18       1.0  0.855466076964596  0.9354020517552475  0.633327288654753  1.0000
  C   C19       1.0  0.8717827992938381  0.9679913647546062  0.21605002092790437  1.0000
  C   C20       1.0  0.9174954956722144  0.8861911508586162  0.15201528226525252  1.0000
  C   C21       1.0  0.9227345163077219  0.8970091812442559  0.016181628730405073  1.0000
  C   C22       1.0  0.8824689293285336  0.9893351691865038  0.9427379145222518  1.0000
  I   I1        1.0  0.8904794805314  0.005335203101983322  0.7378495331119539  1.0000
  C   C23       1.0  0.8368876877274827  0.07104382458303714  0.005253589480289643  1.0000
  C   C24       1.0  0.8315055702438308  0.06064785776496806  0.14106898337356188  1.0000
  H   H7        1.0  0.8559712388702992  0.38308040412223177  0.6178521202762113  1.0000
  H   H8        1.0  0.8663661008999571  0.1640333679160364  0.3767705105633845  1.0000
  H   H9        1.0  0.8646391608420386  0.7468621992960347  0.37655078115870055  1.0000
  H   H10       1.0  0.8513509987781543  0.9271833567249024  0.7385607621460999  1.0000
  H   H11       1.0  0.8561693995536573  0.49013886781192867  0.6178772605671172  1.0000
  H   H12       1.0  0.9498542997155605  0.8150767045375313  0.207034190723526  1.0000
  H   H13       1.0  0.9582396540870193  0.8338065051774396  0.9681162995889466  1.0000
  H   H14       1.0  0.8054741218760086  0.1424188445602732  0.9486696905058061  1.0000
  H   H15       1.0  0.795186200825847  0.1238519492906029  0.1873454275020865  1.0000
  C   C25       1.0  0.8581966678957323  0.4405998388003373  0.18450793846226632  1.0000
  C   C26       1.0  0.7877163118084439  0.3922533645824767  0.18752518492398496  1.0000
  C   C27       1.0  0.7518858435287309  0.367813688063135  0.07190656160801767  1.0000
  C   C28       1.0  0.7874842025026251  0.3923695344890323  0.9522332115866677  1.0000
  C   C29       1.0  0.8580097450953359  0.44073866345237356  0.9472651195703095  1.0000
  C   C30       1.0  0.8929318118502327  0.4645585953898321  0.06387796958617908  1.0000
  C   C31       1.0  0.6773306719302422  0.3166601954802306  0.07613471432842078  1.0000
  C   C32       1.0  0.6562200204995965  0.2185179706983875  0.17160642227604517  1.0000
  C   C33       1.0  0.5860471105502051  0.1704171681834787  0.1753528435148386  1.0000
  C   C34       1.0  0.5361447349393716  0.21942752642182503  0.08384946472109722  1.0000
  S   S2        1.0  0.44607230208337106  0.15784015445310295  0.08910789687580878  1.0000
  C   C35       1.0  0.4644561442563312  0.030259468079359544  0.9814346737340384  1.0000
  C   C36       1.0  0.5564967130642602  0.31729542935214855  0.9888689692546025  1.0000
  C   C37       1.0  0.62663333260034  0.365574737404376  0.9847597098517955  1.0000
  H   H16       1.0  0.8853188525140466  0.45912943817364127  0.5108281157112733  1.0000
  H   H17       1.0  0.7601823718016726  0.37517289827908223  0.27988731326125293  1.0000
  H   H18       1.0  0.7604560032152393  0.37203128426904786  0.8629378836812105  1.0000
  H   H19       1.0  0.9472959547327054  0.5018453550073207  0.06083525292410097  1.0000
  H   H20       1.0  0.9912770273568637  0.5312581537496657  0.7306541910429578  1.0000
  H   H21       1.0  0.6941988974316147  0.1778112166868491  0.24227592020162292  1.0000
  H   H22       1.0  0.5706232691758677  0.09461077962611641  0.24907991834772236  1.0000
  H   H23       1.0  0.4146585701011994  0.9736689240312587  0.9671914183566601  1.0000
  H   H24       1.0  0.5055399240133229  0.963674682731258  0.025296639980442626  1.0000
  H   H25       1.0  0.48337069311596775  0.07388804410293726  0.8854110878744751  1.0000
  H   H26       1.0  0.5180166409014199  0.35609012575060106  0.9181723009321487  1.0000
  H   H27       1.0  0.6409895846935275  0.4423095796441382  0.9112244886623437  1.0000
  Zn  Zn1       1.0  0.779852706517325  0.4388770241960299  0.5660363127145176  1.0000
  Zn  Zn2       1.0  0.9363468946145769  0.4424606834886486  0.5657361139660884  1.0000
  C   C38       1.0  0.8580425912740108  0.43553872554279627  0.80308752775611  1.0000
  C   C39       1.0  0.8581587190274768  0.4458006599090021  0.32868502315289994  1.0000
  C   C40       1.0  0.8581426667146732  0.6778590245467  0.5607165492544539  1.0000
  C   C41       1.0  0.8580585898939884  0.20347879940094057  0.5710560709622501  1.0000
  O   O1        1.0  0.9175347108474347  0.448900417298387  0.37695824586093596  1.0000
  O   O2        1.0  0.9174420671095646  0.43515790285118483  0.7545860872665906  1.0000
  O   O3        1.0  0.9175220783741653  0.6308345907678594  0.5588698088777886  1.0000
  O   O4        1.0  0.917454646207468  0.25322373743130133  0.572674426975252  1.0000
  O   O5        1.0  0.79874490152065  0.6281139690318621  0.5590979998009655  1.0000
  O   O6        1.0  0.798664890545091  0.4324388413978308  0.754814208977685  1.0000
  O   O7        1.0  0.7987575347050684  0.44618131030624575  0.3771848061307159  1.0000
  O   O8        1.0  0.7986774700366838  0.2505046211680564  0.5729010846151306  1.0000
