data_image0
_chemical_formula_structural       NC5NC3OH4C6NH7C6NH7Zn2C4O8
_chemical_formula_sum              "N4 C24 O9 H18 Zn2"
_cell_length_a       13.84702359539666
_cell_length_b       9.274771166103582
_cell_length_c       9.274774538082514
_cell_angle_alpha    84.9550519661537
_cell_angle_beta     90.33539993850698
_cell_angle_gamma    90.59789355945463

_space_group_name_H-M_alt    "P 1"
_space_group_IT_number       1

loop_
  _space_group_symop_operation_xyz
  'x, y, z'

loop_
  _atom_site_type_symbol
  _atom_site_label
  _atom_site_symmetry_multiplicity
  _atom_site_fract_x
  _atom_site_fract_y
  _atom_site_fract_z
  _atom_site_occupancy
  N   N1        1.0  0.913972027738434  0.5925940719863401  0.40478739869897584  1.0000
  C   C1        1.0  0.8420216646448155  0.5833726828541932  0.46794150409517976  1.0000
  C   C2        1.0  0.7524164577331789  0.5718901060034247  0.546581672086188  1.0000
  C   C3        1.0  0.6645992709101172  0.582983009341987  0.4706096249500187  1.0000
  C   C4        1.0  0.5769682034873159  0.5720189952547201  0.5456985839185076  1.0000
  C   C5        1.0  0.48687722333848166  0.5834399941477504  0.46748024123229387  1.0000
  N   N2        1.0  0.4144557240684842  0.5926215983987322  0.4045989294424575  1.0000
  C   C6        1.0  0.5771496620665533  0.5499289978723485  0.6969853025748396  1.0000
  C   C7        1.0  0.6645868267040346  0.5388257776058084  0.7730254829963739  1.0000
  C   C8        1.0  0.7525348137023073  0.5497191204735883  0.6984219284463042  1.0000
  O   O1        1.0  0.8396927520509799  0.5385969298489102  0.7745937077172198  1.0000
  H   H1        1.0  0.6644632734725321  0.6000965565990584  0.35340569285929635  1.0000
  H   H2        1.0  0.5097762231619016  0.5412997419385013  0.7560837689033255  1.0000
  H   H3        1.0  0.6639437601338068  0.5217461682728466  0.8899976596514395  1.0000
  H   H4        1.0  0.8415606433672895  0.5226120116048305  0.8840679413116622  1.0000
  C   C9        1.0  0.16125677652738357  0.16900426960755555  0.4054809309968552  1.0000
  C   C10       1.0  0.13851435602765472  0.25343529762592976  0.27642453520584964  1.0000
  C   C11       1.0  0.12478524567172512  0.18951581244279447  0.14654588328489404  1.0000
  C   C12       1.0  0.13384539472612356  0.039796018257164174  0.1447828488483669  1.0000
  C   C13       1.0  0.1547948835748818  0.9540608975347308  0.27206694473255033  1.0000
  C   C14       1.0  0.1671801849324781  0.016200221191952528  0.4039178869412432  1.0000
  N   N3        1.0  0.10263044668204668  0.2770587189684166  0.016070767448004727  1.0000
  H   H5        1.0  0.27121334567361166  0.24592101509569847  0.7213011840424757  1.0000
  H   H6        1.0  0.13364281760041252  0.370032563916717  0.2758719729421031  1.0000
  H   H7        1.0  0.12373930280345458  0.9891781651572837  0.04485415752716482  1.0000
  H   H8        1.0  0.15903418742853304  0.837933097370947  0.26793191821844253  1.0000
  H   H9        1.0  0.23733485935174814  0.717267053690574  0.6187892339636667  1.0000
  H   H10       1.0  0.09597653126163896  0.38913266236132693  0.0160263968404506  1.0000
  H   H11       1.0  0.09262483083484097  0.23043741736231002  0.91851555400687  1.0000
  C   C15       1.0  0.16251113355887292  0.5962915741084294  0.9808769249101661  1.0000
  C   C16       1.0  0.23153573599340205  0.6814207984246377  0.047430601564949486  1.0000
  C   C17       1.0  0.3048097931583216  0.7546676793758231  0.966503143356336  1.0000
  C   C18       1.0  0.30965087742697817  0.7431175513037602  0.8175451847151223  1.0000
  C   C19       1.0  0.2409583264347912  0.6611660568401909  0.7492829659101203  1.0000
  C   C20       1.0  0.1659258043254037  0.5889128406809905  0.828521859748454  1.0000
  N   N4        1.0  0.3749416517117088  0.8395962795717493  0.0360620178143054  1.0000
  H   H12       1.0  0.016187266051088226  0.31429756774963624  0.10737187817894589  1.0000
  H   H13       1.0  0.229845217429115  0.6882621507444899  0.16343876323668405  1.0000
  H   H14       1.0  0.36621824848748874  0.798853586898946  0.7538904256192382  1.0000
  H   H15       1.0  0.24523662843148641  0.6571537725638035  0.6331156973679879  1.0000
  H   H16       1.0  0.06443631612208978  0.40337122700923134  0.5628201329012317  1.0000
  H   H17       1.0  0.3722005374207887  0.8486420769191687  0.1474163072497563  1.0000
  H   H18       1.0  0.43010719943050946  0.8941978721592222  0.9766985613189005  1.0000
  Zn  Zn1       1.0  0.058400816254401855  0.5925980813688441  0.40474133965645187  1.0000
  Zn  Zn2       1.0  0.2700268764167688  0.5926056833533551  0.4046567888872874  1.0000
  C   C21       1.0  0.16523803067835874  0.5845609742055302  0.6683094219966501  1.0000
  C   C22       1.0  0.1631919862390847  0.6006446094545959  0.1410888439216107  1.0000
  C   C23       1.0  0.16603238337503723  0.8561121862021772  0.3984620466537978  1.0000
  C   C24       1.0  0.1623975495217851  0.3290916636877208  0.4109362994370718  1.0000
  O   O2        1.0  0.24373142955085175  0.6021021196034868  0.19482535253047373  1.0000
  O   O3        1.0  0.24531786105386963  0.5831081491819787  0.6145083278559786  1.0000
  O   O4        1.0  0.24595823431736205  0.8023891740006487  0.3966046607169105  1.0000
  O   O5        1.0  0.2430909837099351  0.3828211060432867  0.4127289114650494  1.0000
  O   O6        1.0  0.08533663674362747  0.802382658677955  0.3966692170999482  1.0000
  O   O7        1.0  0.0846962752831484  0.5831033676285544  0.6145728040876666  1.0000
  O   O8        1.0  0.08310983650270767  0.6020973028871688  0.1948880936408448  1.0000
  O   O9        1.0  0.08246939102160768  0.38281627806754104  0.4127917608011722  1.0000
