data_image0
_chemical_formula_structural       NC5NC3F3CH3C6BrH5C6BrH4Zn2C4O8
_chemical_formula_sum              "N2 C25 F3 H12 Br2 Zn2 O8"
_cell_length_a       13.85151926108384
_cell_length_b       9.276564384272257
_cell_length_c       9.27656775626242
_cell_angle_alpha    86.06955747846486
_cell_angle_beta     90.18621463620289
_cell_angle_gamma    90.58593481197379

_space_group_name_H-M_alt    "P 1"
_space_group_IT_number       1

loop_
  _space_group_symop_operation_xyz
  'x, y, z'

loop_
  _atom_site_type_symbol
  _atom_site_label
  _atom_site_symmetry_multiplicity
  _atom_site_fract_x
  _atom_site_fract_y
  _atom_site_fract_z
  _atom_site_occupancy
  N   N1        1.0  0.9163218782912195  0.562649774528613  0.40931928575346943  1.0000
  C   C1        1.0  0.8440702860583301  0.5541817856298021  0.4717635126198515  1.0000
  C   C2        1.0  0.7541836278817219  0.5436464498007298  0.5494530638890227  1.0000
  C   C3        1.0  0.6665513312213753  0.5521280994933764  0.47395691598554773  1.0000
  C   C4        1.0  0.5791316382428616  0.5436464364593254  0.5494530438512756  1.0000
  C   C5        1.0  0.48905103426057644  0.5541818026996352  0.47176360662841327  1.0000
  N   N2        1.0  0.4166436926550396  0.5626497376738795  0.40931939118759564  1.0000
  C   C6        1.0  0.5793285414319344  0.5256869207653223  0.7006221231623901  1.0000
  C   C7        1.0  0.6669509036204979  0.5140279660955992  0.7773824645169769  1.0000
  C   C8        1.0  0.6672098838780948  0.500047429515347  0.9403382467938652  1.0000
  F   F1        1.0  0.7477477926040556  0.42574126573981325  0.9919783697903481  1.0000
  F   F2        1.0  0.5858789779565221  0.42574123611379394  0.9919784690651378  1.0000
  F   F3        1.0  0.6682557175581954  0.6363617758720481  0.9919182266071319  1.0000
  C   C9        1.0  0.7543988676646926  0.5256868257082699  0.7006221428502291  1.0000
  H   H1        1.0  0.6663928942739118  0.5661931865277305  0.35691631800563184  1.0000
  H   H2        1.0  0.5112991350480625  0.5210735305858203  0.7582508430379697  1.0000
  H   H3        1.0  0.8226158879213611  0.5210734492886999  0.758250802085022  1.0000
  C   C10       1.0  0.16357957503949225  0.1391724150301259  0.40968777190691164  1.0000
  C   C11       1.0  0.15091208745309964  0.22138186151188854  0.2779951145343593  1.0000
  C   C12       1.0  0.14723201726180113  0.15511519805647933  0.14753253327305155  1.0000
  C   C13       1.0  0.15619242327317995  0.00569582250265643  0.14628539409312818  1.0000
  C   C14       1.0  0.16715468906376252  0.9217735423860074  0.27598663595646955  1.0000
  C   C15       1.0  0.16939517810456883  0.9861161215444162  0.40896327698397417  1.0000
  Br  Br1       1.0  0.15186657196588427  0.9155846910368071  0.9672679381776669  1.0000
  H   H4        1.0  0.13579580019557902  0.4040191723693206  0.6439411532394519  1.0000
  H   H5        1.0  0.1461423022236148  0.33801409397240234  0.2755283627822256  1.0000
  H   H6        1.0  0.13833128559345154  0.22035241317715015  0.047166596589373964  1.0000
  H   H7        1.0  0.17161455333859998  0.80550313363566  0.2728801169752384  1.0000
  H   H8        1.0  0.2231556832337458  0.6903814394215922  0.6333766542857664  1.0000
  C   C16       1.0  0.16553740727937766  0.5585000615223539  0.9862023412013842  1.0000
  C   C17       1.0  0.07998570417593845  0.5932163244617765  0.056783472315521166  1.0000
  C   C18       1.0  0.9988055938015598  0.6398112451113007  0.9780426157374111  1.0000
  C   C19       1.0  0.0016528479453405943  0.6526336492760796  0.8275358045108359  1.0000
  C   C20       1.0  0.08530120081286156  0.6163595913873448  0.7552289432844388  1.0000
  C   C21       1.0  0.16743737411530352  0.5667885509726538  0.832448774551691  1.0000
  Br  Br2       1.0  0.8905510666133251  0.7175658505198073  0.7202300221657953  1.0000
  H   H9        1.0  0.29744859355911824  0.42751730690987666  0.27714858542312926  1.0000
  H   H10       1.0  0.9339081366440054  0.6673060177606491  0.034336476467534696  1.0000
  H   H11       1.0  0.08519984075866649  0.6237259029243392  0.6381721792081718  1.0000
  H   H12       1.0  0.32618284558758837  0.5518975886023478  0.5530668001707637  1.0000
  Zn  Zn1       1.0  0.060703938759453485  0.5626459954264373  0.40932762456211136  1.0000
  Zn  Zn2       1.0  0.27226156034014  0.5626418694562647  0.40932281064434317  1.0000
  C   C22       1.0  0.16703661029746408  0.5594768848324743  0.672494976877299  1.0000
  C   C23       1.0  0.16593121181633233  0.5658128009365568  0.146155598142365  1.0000
  C   C24       1.0  0.16827804169540528  0.8259695185554929  0.40335848405070857  1.0000
  C   C25       1.0  0.16468969650413542  0.2993184353853997  0.4152921692718317  1.0000
  O   O1        1.0  0.2463483478646573  0.5682591659834821  0.19983555088747917  1.0000
  O   O2        1.0  0.24718680551737782  0.5570262963095305  0.6188109566338524  1.0000
  O   O3        1.0  0.24818819815457407  0.7722224829954976  0.40148133323308843  1.0000
  O   O4        1.0  0.2453468828654568  0.3530629885567753  0.4171650662452992  1.0000
  O   O5        1.0  0.0876185440398971  0.7722248763288309  0.4014853689552179  1.0000
  O   O6        1.0  0.08661716312271772  0.5570304214739059  0.6188149140471679  1.0000
  O   O7        1.0  0.08577870129978439  0.5682632239277254  0.19983777599265906  1.0000
  O   O8        1.0  0.08477723646834856  0.3530670372446618  0.41716739938748626  1.0000
