data_image0
_chemical_formula_structural       NC10NC2OCH8C7ONC2H11C6NO2H5Zn2C4O8
_chemical_formula_sum              "N4 C32 O12 H24 Zn2"
_cell_length_a       19.251394670931877
_cell_length_b       10.299288639353465
_cell_length_c       10.29948882739461
_cell_angle_alpha    85.56920425576467
_cell_angle_beta     89.95040403654076
_cell_angle_gamma    90.0661692516291

_space_group_name_H-M_alt    "P 1"
_space_group_IT_number       1

loop_
  _space_group_symop_operation_xyz
  'x, y, z'

loop_
  _atom_site_type_symbol
  _atom_site_label
  _atom_site_symmetry_multiplicity
  _atom_site_fract_x
  _atom_site_fract_y
  _atom_site_fract_z
  _atom_site_occupancy
  N   N1        1.0  0.6538176239981252  0.42326943837678876  0.5664986670502681  1.0000
  C   C1        1.0  0.5937403218485762  0.4196989384452421  0.5651413312155897  1.0000
  C   C2        1.0  0.5189637546797917  0.4152695980357498  0.563508953657202  1.0000
  C   C3        1.0  0.48560321687268054  0.3855034104025334  0.4558703072528911  1.0000
  C   C4        1.0  0.4093091073760901  0.3788940708440085  0.4527241039204138  1.0000
  C   C5        1.0  0.372056305240636  0.41549638329609623  0.5538281254636848  1.0000
  C   C6        1.0  0.2949061881776431  0.41672172342495933  0.5535396002965747  1.0000
  C   C7        1.0  0.2590319779925036  0.4026435332635738  0.6728051641815322  1.0000
  C   C8        1.0  0.186433996940976  0.40429761115666235  0.6759009852413984  1.0000
  C   C9        1.0  0.1486388042788914  0.4209798379708774  0.5598761724834596  1.0000
  C   C10       1.0  0.073892881255447  0.4228414016411824  0.563177177616617  1.0000
  N   N2        1.0  0.0138031957436958  0.4243379220583394  0.5658308552021865  1.0000
  C   C11       1.0  0.183725794113252  0.4365263022298094  0.44066764758512456  1.0000
  C   C12       1.0  0.2563337672676547  0.4348120156151345  0.4372626860270299  1.0000
  O   O1        1.0  0.40713139727726927  0.45501365269184885  0.6635299758868514  1.0000
  C   C13       1.0  0.4793169592661812  0.4303352843018203  0.687604031242957  1.0000
  H   H1        1.0  0.5143634438684933  0.3668732599894199  0.36872509111605023  1.0000
  H   H2        1.0  0.38469076589221635  0.3455754516625278  0.36697170222035  1.0000
  H   H3        1.0  0.28715537034682714  0.3891313156204128  0.7638684436393912  1.0000
  H   H4        1.0  0.15981134792357288  0.3925632353824163  0.7688030026418546  1.0000
  H   H5        1.0  0.15496896481820127  0.45067248744530825  0.3503033725179534  1.0000
  H   H6        1.0  0.2818692785679591  0.4501005720837621  0.3437435853896165  1.0000
  H   H7        1.0  0.5013727944462525  0.5117131506854262  0.7391655301449551  1.0000
  H   H8        1.0  0.48447753054437437  0.33906127271461006  0.7516502626559918  1.0000
  C   C14       1.0  0.8338804343499486  0.04242457546283318  0.5661124415854113  1.0000
  C   C15       1.0  0.8113374201664846  0.05146358668913732  0.43607000623476133  1.0000
  C   C16       1.0  0.8003733913384822  0.9388714730424169  0.36992173181411814  1.0000
  C   C17       1.0  0.8111919840387779  0.816186734036147  0.43623145192154933  1.0000
  C   C18       1.0  0.8337470388657496  0.8051728058562859  0.5662282974140138  1.0000
  C   C19       1.0  0.8451195707757657  0.9188659032139908  0.63034398107136  1.0000
  C   C20       1.0  0.7763380330634867  0.9479831898178229  0.23272371841318962  1.0000
  O   O2        1.0  0.7428166154986191  0.8544066606916262  0.19106111460245925  1.0000
  N   N3        1.0  0.7913842984974103  0.0605693714704707  0.1461258519731572  1.0000
  C   C21       1.0  0.7608485396735581  0.07670569300929775  0.01587023178848379  1.0000
  C   C22       1.0  0.7849876268547689  0.20349157396532805  0.9433310807295818  1.0000
  H   H9        1.0  0.8419274095845827  0.3664182569455243  0.6161950317172118  1.0000
  H   H10       1.0  0.8010533629725242  0.14634846856189654  0.3873933233102722  1.0000
  H   H11       1.0  0.8025927057671326  0.729076432772961  0.3858264852255573  1.0000
  H   H12       1.0  0.862524422142784  0.9111597201539586  0.7306265241377741  1.0000
  H   H13       1.0  0.8417668847722916  0.4734843937830979  0.6161668431776373  1.0000
  H   H14       1.0  0.8265829492490484  0.13007284115055762  0.17496103827628273  1.0000
  H   H15       1.0  0.7032942136541626  0.07791739694752287  0.024199260170643114  1.0000
  H   H16       1.0  0.7763477080732035  0.9936883887155672  0.9594143754806232  1.0000
  H   H17       1.0  0.7692845037496706  0.2878160765426854  0.9976364233001315  1.0000
  H   H18       1.0  0.8423822162927506  0.2033150161804214  0.9322018632235558  1.0000
  H   H19       1.0  0.7609419781164111  0.21363846340820764  0.8451215325605177  1.0000
  C   C23       1.0  0.8338124255436645  0.423799718941067  0.18479878992561627  1.0000
  C   C24       1.0  0.7663121215971767  0.47551277288837723  0.17992866489906523  1.0000
  C   C25       1.0  0.732083482781463  0.5017357599964396  0.06038631327305999  1.0000
  C   C26       1.0  0.7663186152334248  0.47550769910301094  0.9446594032043922  1.0000
  C   C27       1.0  0.833815022657928  0.42379761093181534  0.9475419816277474  1.0000
  C   C28       1.0  0.867178539511253  0.398237396499316  0.06809054862128039  1.0000
  N   N4        1.0  0.6628567981214055  0.5547712822869886  0.05680775772756652  1.0000
  O   O3        1.0  0.6293716999221772  0.580424956169  0.17011725845059011  1.0000
  O   O4        1.0  0.6320624690686215  0.5783632706312201  0.9509762969860472  1.0000
  H   H20       1.0  0.8595934339536663  0.40404845460908884  0.5141230635447234  1.0000
  H   H21       1.0  0.740268964090981  0.49546486342912727  0.26940291625122414  1.0000
  H   H22       1.0  0.7402527160371845  0.49547723777659747  0.8521868420912386  1.0000
  H   H23       1.0  0.9192425023509542  0.35835037377474777  0.07108820699071283  1.0000
  H   H24       1.0  0.8595844896871925  0.40405512683758316  0.6211834935463494  1.0000
  Zn  Zn1       1.0  0.7577016889563583  0.4235742989831778  0.5663134483576127  1.0000
  Zn  Zn2       1.0  0.9099191350459251  0.4240224212268624  0.5660267039600044  1.0000
  C   C29       1.0  0.8338139074478287  0.41862421612062994  0.8033663749484572  1.0000
  C   C30       1.0  0.8338085784780921  0.42897414764588354  0.32897390195415843  1.0000
  C   C31       1.0  0.8337686615135941  0.6609971439752664  0.5610311954840181  1.0000
  C   C32       1.0  0.8338537727442721  0.18659965929390235  0.5713091505185561  1.0000
  O   O5        1.0  0.8915730158617308  0.43087512735157235  0.37725156774174473  1.0000
  O   O6        1.0  0.891578989744278  0.41706237108140787  0.7548707028004391  1.0000
  O   O7        1.0  0.8915416743751783  0.6127815732518942  0.559183332493356  1.0000
  O   O8        1.0  0.8916102792873674  0.2351559343189069  0.5729388407727378  1.0000
  O   O9        1.0  0.7760104927705718  0.6124407857396248  0.5594013116359002  1.0000
  O   O10       1.0  0.776047807863382  0.416723143914975  0.7550886129340463  1.0000
  O   O11       1.0  0.776041834029577  0.43053585493234614  0.377467916456798  1.0000
  O   O12       1.0  0.7760790974543328  0.23481665261035145  0.573155286854903  1.0000
