data_image0
_chemical_formula_structural       NC5OC5NC4H8C9H8C7NH4Zn2C4O8
_chemical_formula_sum              "N3 C34 O9 H20 Zn2"
_cell_length_a       19.189071930511275
_cell_length_b       9.275152443626249
_cell_length_c       9.275157849593905
_cell_angle_alpha    85.91609934181939
_cell_angle_beta     89.71899716240229
_cell_angle_gamma    90.56463589314393

_space_group_name_H-M_alt    "P 1"
_space_group_IT_number       1

loop_
  _space_group_symop_operation_xyz
  'x, y, z'

loop_
  _atom_site_type_symbol
  _atom_site_label
  _atom_site_symmetry_multiplicity
  _atom_site_fract_x
  _atom_site_fract_y
  _atom_site_fract_z
  _atom_site_occupancy
  N   N1        1.0  0.6672669889364478  0.5632466256642042  0.40446755258493483  1.0000
  C   C1        1.0  0.6131017210186305  0.6142782169425822  0.38399354139911157  1.0000
  C   C2        1.0  0.5457271022014099  0.6777530094375321  0.3585269510902036  1.0000
  C   C3        1.0  0.5367937746793592  0.7843299827784007  0.24561738014198098  1.0000
  C   C4        1.0  0.47134669732203366  0.846070103351874  0.22101894837679126  1.0000
  C   C5        1.0  0.4141768321595433  0.8011037529937892  0.3078265906303761  1.0000
  O   O1        1.0  0.34958369865002487  0.86685355970321  0.2807009789350716  1.0000
  C   C6        1.0  0.2842361143588098  0.8008871682993545  0.3072012406672675  1.0000
  C   C7        1.0  0.22781941394014968  0.8873953118031024  0.34048162419980366  1.0000
  C   C8        1.0  0.1616669102923117  0.8259813840197561  0.36602290641660296  1.0000
  C   C9        1.0  0.15127100236161684  0.6772451821006394  0.3570593228094987  1.0000
  C   C10       1.0  0.083170392108215  0.613998416791147  0.3831848153896178  1.0000
  N   N2        1.0  0.0284215040294857  0.5631502196121445  0.4041890381103779  1.0000
  C   C11       1.0  0.20721735545833173  0.5903741090913939  0.3216524768698188  1.0000
  C   C12       1.0  0.2733611078656202  0.6518323135916353  0.29615946379713987  1.0000
  C   C13       1.0  0.4235933433798272  0.6955467152112762  0.4225285500932219  1.0000
  C   C14       1.0  0.4890313398200823  0.6338026917098797  0.447195106211323  1.0000
  H   H1        1.0  0.5803642067799135  0.819782327065755  0.17681468767222563  1.0000
  H   H2        1.0  0.464901834331572  0.928582188386352  0.13365702891540532  1.0000
  H   H3        1.0  0.23539638687447362  0.0025149791435796803  0.3473817135789534  1.0000
  H   H4        1.0  0.11869142176422579  0.8944053270380515  0.39253458642439765  1.0000
  H   H5        1.0  0.19963842590161146  0.47540772573678747  0.3130042528538248  1.0000
  H   H6        1.0  0.31563671747310906  0.5836036941361066  0.2658589150900508  1.0000
  H   H7        1.0  0.3807377626355398  0.6625391612077904  0.49404513997049193  1.0000
  H   H8        1.0  0.4954858003760645  0.5524661983532937  0.5357641785595626  1.0000
  C   C15       1.0  0.8457886908591805  0.13958087369181782  0.4058011310170988  1.0000
  C   C16       1.0  0.8209111691170422  0.22114724369602912  0.2833912239766012  1.0000
  C   C17       1.0  0.8025163346195258  0.15450905179967456  0.15868413927082337  1.0000
  C   C18       1.0  0.8087112812947397  0.0051195789296458695  0.1539177391567741  1.0000
  C   C19       1.0  0.8322282825302819  0.9218554554001045  0.2752940110157891  1.0000
  C   C20       1.0  0.8499064172089383  0.9868050610381718  0.4028679018225205  1.0000
  C   C21       1.0  0.7901070202579518  0.9367305419376651  0.02477536691869409  1.0000
  C   C22       1.0  0.7745303202551611  0.8794372768778544  0.9166388771379036  1.0000
  C   C23       1.0  0.7556310789201621  0.8099100322820526  0.7854342115193989  1.0000
  H   H9        1.0  0.9453085669328587  0.22397892551939805  0.6935302074515566  1.0000
  H   H10       1.0  0.81724120434414  0.33766134110834467  0.28294075058240886  1.0000
  H   H11       1.0  0.7840838825862683  0.21985441896375926  0.06536497487259862  1.0000
  H   H12       1.0  0.8351709655784586  0.8055059039944167  0.2712715868861397  1.0000
  H   H13       1.0  0.91466961706804  0.6933851282963743  0.5996674787867797  1.0000
  H   H14       1.0  0.7683419502866563  0.6933145349107233  0.7988874470208449  1.0000
  H   H15       1.0  0.6989536104846945  0.8223176249587746  0.7657492795080745  1.0000
  H   H16       1.0  0.7852601775371985  0.861351851241964  0.6921306027305509  1.0000
  C   C24       1.0  0.848752425545367  0.5591151241614987  0.9811501683270422  1.0000
  C   C25       1.0  0.9090461125158839  0.6061262587940255  0.050637063166335754  1.0000
  C   C26       1.0  0.9658201436736781  0.6644816719307804  0.9705132456413951  1.0000
  C   C27       1.0  0.962963549337427  0.6767537448005729  0.8198140628868322  1.0000
  C   C28       1.0  0.9040969282671939  0.6285740905082624  0.7489885654598143  1.0000
  C   C29       1.0  0.846942695965388  0.5672707390461496  0.8275189311398639  1.0000
  C   C30       1.0  0.026806614527034926  0.7135015740429134  0.043300250631775894  1.0000
  N   N3        1.0  0.07582411810609613  0.7529003573046882  0.10180874494668579  1.0000
  H   H17       1.0  0.6789581002821847  0.5105217411521557  0.08928693697950618  1.0000
  H   H18       1.0  0.006579862067382257  0.7223723981944847  0.7567998221465984  1.0000
  H   H19       1.0  0.9039796236196527  0.6361582994242214  0.6318979872879842  1.0000
  H   H20       1.0  0.7333219911206584  0.5284964850690586  0.5503342564670097  1.0000
  Zn  Zn1       1.0  0.7714883529200528  0.5632150367429689  0.4043955083796438  1.0000
  Zn  Zn2       1.0  0.9242000750896039  0.563170165276994  0.404272905651627  1.0000
  C   C31       1.0  0.8472552714135412  0.5599823560943233  0.6675569844523479  1.0000
  C   C32       1.0  0.8484348327473101  0.5664046669472791  0.14111156338112507  1.0000
  C   C33       1.0  0.8491367668370267  0.826606292310289  0.3976797698059844  1.0000
  C   C34       1.0  0.8465532766261364  0.2997789983313759  0.41098886090006603  1.0000
  O   O2        1.0  0.9062815178150484  0.5688277822074732  0.1947495635188543  1.0000
  O   O3        1.0  0.9053132455615908  0.5575240921744724  0.6138255206119343  1.0000
  O   O4        1.0  0.9068317924685225  0.7728263072573897  0.39589775579313313  1.0000
  O   O5        1.0  0.9047629190791462  0.3535255764180876  0.4126772202923854  1.0000
  O   O6        1.0  0.7909254568175187  0.7728596256186855  0.39599119377313863  1.0000
  O   O7        1.0  0.7894069184952826  0.5575591429525149  0.6139188757536147  1.0000
  O   O8        1.0  0.7903751942555027  0.5688627660205665  0.19484118623302193  1.0000
  O   O9        1.0  0.7888565952355789  0.353560550954459  0.4127689510860759  1.0000
