data_image0
_chemical_formula_structural       NC16NOH10C12H10C12H10Zn2C4O8
_chemical_formula_sum              "N2 C44 O9 H30 Zn2"
_cell_length_a       21.30360265646646
_cell_length_b       14.994056859933256
_cell_length_c       13.024585202197207
_cell_angle_alpha    85.82059027263038
_cell_angle_beta     93.57028129254516
_cell_angle_gamma    90.61133045355606

_space_group_name_H-M_alt    "P 1"
_space_group_IT_number       1

loop_
  _space_group_symop_operation_xyz
  'x, y, z'

loop_
  _atom_site_type_symbol
  _atom_site_label
  _atom_site_symmetry_multiplicity
  _atom_site_fract_x
  _atom_site_fract_y
  _atom_site_fract_z
  _atom_site_occupancy
  N   N1        1.0  0.542266266875246  0.981219772051047  0.8577910962804485  1.0000
  C   C1        1.0  0.48801048489299553  0.9764287986259789  0.8476105534286358  1.0000
  C   C2        1.0  0.4205209330373993  0.9704695645327369  0.8349468529164765  1.0000
  C   C3        1.0  0.3873397510086873  0.028746312952716565  0.7628166147855588  1.0000
  C   C4        1.0  0.3217824889490777  0.02306773318256529  0.7503838217010443  1.0000
  C   C5        1.0  0.2883754109089216  0.9589054930737544  0.8102976269257187  1.0000
  C   C6        1.0  0.3223728573741245  0.9003800470531843  0.8822938238496937  1.0000
  C   C7        1.0  0.3879168521275961  0.9062584733659202  0.8945681169658525  1.0000
  C   C8        1.0  0.2186744951250044  0.951654157617514  0.7981283584501246  1.0000
  C   C9        1.0  0.1795713815176193  0.02393006534753117  0.7388744237363005  1.0000
  C   C10       1.0  0.1112063546103347  0.017389001803293832  0.7624578721992157  1.0000
  C   C11       1.0  0.06836779267158141  0.9700761666520158  0.7001369846922536  1.0000
  C   C12       1.0  0.005282902415816588  0.9623106172115987  0.723568606974335  1.0000
  C   C13       1.0  0.9845466361349591  0.0012157941233215145  0.8098512167658871  1.0000
  C   C14       1.0  0.027189625566658812  0.047721672456479736  0.8728187876343432  1.0000
  C   C15       1.0  0.09028231426730972  0.05552968888086141  0.8494614594350403  1.0000
  C   C16       1.0  0.919616578621373  0.9931071949856277  0.833997109081408  1.0000
  N   N2        1.0  0.8674163405399241  0.9865878065761492  0.853409535977184  1.0000
  O   O1        1.0  0.19184491526941697  0.8823049025537777  0.8356282353592897  1.0000
  H   H1        1.0  0.41215311609685235  0.07849052131099965  0.7159310381267793  1.0000
  H   H2        1.0  0.297677631935188  0.06847428473609929  0.6930802668367817  1.0000
  H   H3        1.0  0.2982836250965605  0.8502555804603387  0.9296774356159041  1.0000
  H   H4        1.0  0.41313816474457676  0.8607219812094814  0.9506100272052486  1.0000
  H   H5        1.0  0.19789891880479882  0.0906374030213073  0.7586239093345989  1.0000
  H   H6        1.0  0.18441839310641628  0.019124984180983743  0.6549876945632334  1.0000
  H   H7        1.0  0.0838335655821577  0.9391233961926184  0.6335811596598868  1.0000
  H   H8        1.0  0.9727547927845421  0.9258231995635119  0.6746099436673052  1.0000
  H   H9        1.0  0.01171734270648  0.07772174261316286  0.9400319151028096  1.0000
  H   H10       1.0  0.1228610007630106  0.09115694003543172  0.8991861108679259  1.0000
  C   C17       1.0  0.7049001906941702  0.7219404964747993  0.8555258868403921  1.0000
  C   C18       1.0  0.730605195959767  0.6797930239623201  0.7749849591566134  1.0000
  C   C19       1.0  0.7306014576921258  0.5865684608585615  0.7750424566604455  1.0000
  C   C20       1.0  0.7048536739096323  0.5334397233226705  0.855569529535141  1.0000
  C   C21       1.0  0.6791359884370637  0.5756900092456624  0.9360546150932035  1.0000
  C   C22       1.0  0.6791867639250279  0.6689159875186311  0.9360423329768652  1.0000
  C   C23       1.0  0.704821831452506  0.4343625482862349  0.8556145483544904  1.0000
  C   C24       1.0  0.6522208838214589  0.3840016420545516  0.8859907593267216  1.0000
  C   C25       1.0  0.6521853245828475  0.2907803555099914  0.885988865681412  1.0000
  C   C26       1.0  0.7047888345325654  0.24586037593543333  0.8556835577938922  1.0000
  C   C27       1.0  0.7573785741084359  0.29611466251980634  0.8253611176794928  1.0000
  C   C28       1.0  0.7573930889371439  0.3893443767112293  0.8252810908136231  1.0000
  H   H11       1.0  0.6789112817625559  0.9292306182313791  0.9368642339035618  1.0000
  H   H12       1.0  0.7506162652066096  0.7188365715163548  0.7116664064758169  1.0000
  H   H13       1.0  0.7500169674505405  0.5560674728061913  0.71126403819438  1.0000
  H   H14       1.0  0.659699354179792  0.5365907978894418  0.9998621369999776  1.0000
  H   H15       1.0  0.6591944881410171  0.6993735948180203  0.9993404560262849  1.0000
  H   H16       1.0  0.6106948582131815  0.4167816468600606  0.9084755266540722  1.0000
  H   H17       1.0  0.6108573790922245  0.2539340024135743  0.9094961778740165  1.0000
  H   H18       1.0  0.798691409498697  0.2634594200667475  0.8018813629046069  1.0000
  H   H19       1.0  0.7989397238720826  0.42616458173536953  0.8027661453192183  1.0000
  H   H20       1.0  0.7579171650989959  0.0357728467713656  0.8250308247890383  1.0000
  C   C29       1.0  0.6919848102554838  0.9826174641552419  0.5535588012162689  1.0000
  C   C30       1.0  0.6780995587878655  0.053673381714976154  0.4793373679525714  1.0000
  C   C31       1.0  0.699536063898145  0.052661501180770065  0.3801679927831234  1.0000
  C   C32       1.0  0.734806512745794  0.9803537636147184  0.3532237380535468  1.0000
  C   C33       1.0  0.7492876349399672  0.9098152616504724  0.42736410693965743  1.0000
  C   C34       1.0  0.7278827314061216  0.9107528000719163  0.5265762976352082  1.0000
  C   C35       1.0  0.7584012521313115  0.9799199783786249  0.24870546921412345  1.0000
  C   C36       1.0  0.8238361346802573  0.9780918710281745  0.24014061904745307  1.0000
  C   C37       1.0  0.849056158283383  0.9832387416712879  0.14357784647983607  1.0000
  C   C38       1.0  0.8093712778267794  0.9904675339480399  0.05426638545656304  1.0000
  C   C39       1.0  0.7442589380130226  0.9914668901628043  0.06108401559829635  1.0000
  C   C40       1.0  0.7177041799696371  0.9851833862497721  0.15765059128527792  1.0000
  H   H21       1.0  0.6681989505545898  0.912569067392028  0.8038009911584809  1.0000
  H   H22       1.0  0.6507860417345928  0.11016851701055021  0.4979051907001065  1.0000
  H   H23       1.0  0.6887232345249779  0.1083295357340257  0.32433293589237655  1.0000
  H   H24       1.0  0.7768640977956282  0.8537854075836624  0.40811151688674907  1.0000
  H   H25       1.0  0.7395065455464986  0.8551928804376634  0.5820823078422113  1.0000
  H   H26       1.0  0.8555333627126961  0.9742622101480382  0.30865903352611096  1.0000
  H   H27       1.0  0.8995245685548425  0.9823023253773372  0.13801603196626533  1.0000
  H   H28       1.0  0.829081478447849  0.9947267654017625  0.9794350058710463  1.0000
  H   H29       1.0  0.7145491509955152  0.9955210596926394  0.9903528973660265  1.0000
  H   H30       1.0  0.5632394879796848  0.013723754025966928  0.0752068282006415  1.0000
  Zn  Zn1       1.0  0.6360978170772811  0.9827665078017439  0.8565326048801969  1.0000
  Zn  Zn2       1.0  0.7735851706466754  0.9850338066622283  0.8546764270198626  1.0000
  C   C41       1.0  0.7128420432872508  0.9811445302025602  0.04346328260833643  1.0000
  C   C42       1.0  0.6968424498532234  0.9866569350213437  0.667745830315017  1.0000
  C   C43       1.0  0.7046321396075904  0.14681088079606464  0.8515550219167791  1.0000
  C   C44       1.0  0.7050523091805958  0.8209895121109679  0.8596541461547638  1.0000
  O   O2        1.0  0.7506484530627889  0.9888691546331233  0.7053636293964372  1.0000
  O   O3        1.0  0.7633857477330672  0.9806524637324366  0.00443639118969741  1.0000
  O   O4        1.0  0.7567554888641023  0.11443012991746526  0.8494691226735092  1.0000
  O   O5        1.0  0.7572786617318192  0.8550914937283216  0.8603308214267547  1.0000
  O   O6        1.0  0.6524042790742206  0.11270881996288075  0.8508782111013173  1.0000
  O   O7        1.0  0.6590345353775569  0.9789322253219539  0.00584542509732855  1.0000
  O   O8        1.0  0.6462971881054393  0.9871488798841942  0.7067714266577232  1.0000
  O   O9        1.0  0.6529274000564879  0.8533712129263961  0.8617386958019242  1.0000
