data_image0
_chemical_formula_structural       NC5NC3OH4C6BrH5C6ClH5Zn2C4O8
_chemical_formula_sum              "N2 C24 O9 H14 Br1 Cl1 Zn2"
_cell_length_a       13.84702359539666
_cell_length_b       9.276564384272257
_cell_length_c       10.302974078461048
_cell_angle_alpha    85.51203645114332
_cell_angle_beta     89.98558386727187
_cell_angle_gamma    90.58678901707502

_space_group_name_H-M_alt    "P 1"
_space_group_IT_number       1

loop_
  _space_group_symop_operation_xyz
  'x, y, z'

loop_
  _atom_site_type_symbol
  _atom_site_label
  _atom_site_symmetry_multiplicity
  _atom_site_fract_x
  _atom_site_fract_y
  _atom_site_fract_z
  _atom_site_occupancy
  N   N1        1.0  0.9201922124598787  0.5782771311942341  0.5664529634654265  1.0000
  C   C1        1.0  0.8479885678953986  0.5696078578099599  0.6232545041687418  1.0000
  C   C2        1.0  0.7580679721858948  0.5588127813990549  0.6939843906074243  1.0000
  C   C3        1.0  0.6705554735922074  0.5692415099879478  0.6256542431774794  1.0000
  C   C4        1.0  0.5826232595991885  0.5589339503929038  0.6931901307376286  1.0000
  C   C5        1.0  0.49284597650304746  0.569671136589609  0.6228396389223142  1.0000
  N   N2        1.0  0.42067666465069975  0.5783030099390878  0.5662834520192193  1.0000
  C   C6        1.0  0.5821979781677642  0.5381665555456703  0.8292591741265595  1.0000
  C   C7        1.0  0.6693301813733448  0.5277281057748748  0.8976506011030687  1.0000
  C   C8        1.0  0.7575773681858591  0.5379692376733947  0.8305512921330258  1.0000
  O   O1        1.0  0.8444298172894539  0.5275129679617743  0.8990610808703553  1.0000
  H   H1        1.0  0.670889526092299  0.585330418572434  0.52023965657786  1.0000
  H   H2        1.0  0.5145875230629141  0.5300539595271923  0.8824130255975796  1.0000
  H   H3        1.0  0.6682179943148631  0.5116711089988555  0.0028567442417318763  1.0000
  H   H4        1.0  0.8458586588623411  0.5124851126093242  0.9975234862634635  1.0000
  C   C9        1.0  0.16752945353841686  0.15480895208017809  0.5667011630127383  1.0000
  C   C10       1.0  0.15515361448203738  0.23830761014149535  0.4480476320859166  1.0000
  C   C11       1.0  0.15176535160406956  0.17331857513516424  0.33049937882522995  1.0000
  C   C12       1.0  0.16073147115127306  0.023911878196777533  0.32937264311803816  1.0000
  C   C13       1.0  0.17140600660780758  0.938719803262873  0.4462324452559814  1.0000
  C   C14       1.0  0.17334857411383903  0.0017600554919703325  0.5660464066667614  1.0000
  Br  Br1       1.0  0.15680626575155054  0.9355539136317393  0.16807565624481624  1.0000
  H   H5        1.0  0.1392105420925367  0.417359872068744  0.7777777525319867  1.0000
  H   H6        1.0  0.15038781885135322  0.35496375654014445  0.4458266542601532  1.0000
  H   H7        1.0  0.14308713675114126  0.23953836637450815  0.2400705983291753  1.0000
  H   H8        1.0  0.17587429745014263  0.8224800520740803  0.44343189522367576  1.0000
  H   H9        1.0  0.2266225483561355  0.7038301320876098  0.7682293063169878  1.0000
  C   C15       1.0  0.17043902038343317  0.5782845377950943  0.18513131333455377  1.0000
  C   C16       1.0  0.15261140038659687  0.4285036264636402  0.19448645640589635  1.0000
  C   C17       1.0  0.14376587107972094  0.35418641784922866  0.08217143203195354  1.0000
  C   C18       1.0  0.15261144413794514  0.4285037079089225  0.9593785573572013  1.0000
  C   C19       1.0  0.17043901740867073  0.578284463355625  0.9476163324663522  1.0000
  C   C20       1.0  0.17926594325180492  0.6524448311999653  0.06114596659181837  1.0000
  Cl  Cl1       1.0  0.12149494161402279  0.1670744768313317  0.09536177094252252  1.0000
  H   H10       1.0  0.17715493397804805  0.6347044219065028  0.5089103313090262  1.0000
  H   H11       1.0  0.14552095273818932  0.3689322603385825  0.2887324449781179  1.0000
  H   H12       1.0  0.14552102008071097  0.36893223976458067  0.8735314788972572  1.0000
  H   H13       1.0  0.1930150955608434  0.76796036564115  0.053002674448535236  1.0000
  H   H14       1.0  0.17715475012699902  0.6347044091354763  0.6158827008997658  1.0000
  Zn  Zn1       1.0  0.06462118605152245  0.578280738653238  0.5664115350155337  1.0000
  Zn  Zn2       1.0  0.2762475859264719  0.5782876027591468  0.5663354848584106  1.0000
  C   C21       1.0  0.17039737860809148  0.5725395293855042  0.8034947520004031  1.0000
  C   C22       1.0  0.1704737168252053  0.5840306316639652  0.3292523930607083  1.0000
  C   C23       1.0  0.17224366227813714  0.8416682909940296  0.5609967502763413  1.0000
  C   C24       1.0  0.16862734903776744  0.31490013745602075  0.5717504653657368  1.0000
  O   O2        1.0  0.2507964338943973  0.5859553867760483  0.37759188820421685  1.0000
  O   O3        1.0  0.250694194867781  0.5706188960638461  0.7550971636661898  1.0000
  O   O4        1.0  0.2521840096484995  0.7879437746252735  0.5592783107903532  1.0000
  O   O5        1.0  0.2493065469708038  0.36863051852836715  0.573410643755641  1.0000
  O   O6        1.0  0.09156215278949675  0.787937822883245  0.5593363761374257  1.0000
  O   O7        1.0  0.09007234990847657  0.5706146769204636  0.7551551584514182  1.0000
  O   O8        1.0  0.09017458865408412  0.5859511173794507  0.3776483221451785  1.0000
  O   O9        1.0  0.088684701655672  0.36862623881725076  0.5734671750401374  1.0000
