data_image0
_chemical_formula_structural       NC5NC3F3CH3C6NH7C6NH7Zn2C4O8
_chemical_formula_sum              "N4 C25 F3 H17 Zn2 O8"
_cell_length_a       13.85151926108384
_cell_length_b       9.274771166103582
_cell_length_c       9.274774538082514
_cell_angle_alpha    84.9550519661537
_cell_angle_beta     90.34967317275357
_cell_angle_gamma    90.59705350001695

_space_group_name_H-M_alt    "P 1"
_space_group_IT_number       1

loop_
  _space_group_symop_operation_xyz
  'x, y, z'

loop_
  _atom_site_type_symbol
  _atom_site_label
  _atom_site_symmetry_multiplicity
  _atom_site_fract_x
  _atom_site_fract_y
  _atom_site_fract_z
  _atom_site_occupancy
  N   N1        1.0  0.9136764153235233  0.5925438011699005  0.40513174972095267  1.0000
  C   C1        1.0  0.8415353651699722  0.5829171696975288  0.46768822162547297  1.0000
  C   C2        1.0  0.751786237160618  0.570940316770826  0.5455174217264462  1.0000
  C   C3        1.0  0.6640200709737125  0.580822290882495  0.46988729955808184  1.0000
  C   C4        1.0  0.5767342474842534  0.5709403037966978  0.5455174016685163  1.0000
  C   C5        1.0  0.48651611354241053  0.5829171850314425  0.4676883157736133  1.0000
  N   N2        1.0  0.41399822987113377  0.5925437623525031  0.40513185536684315  1.0000
  C   C6        1.0  0.5771990796484694  0.5501765853608847  0.6969557060334057  1.0000
  C   C7        1.0  0.6649571689373195  0.5370930031276911  0.773855258229134  1.0000
  C   C8        1.0  0.665505649386194  0.5200911336173721  0.9370959524848416  1.0000
  F   F1        1.0  0.7461264575034606  0.44480784786086347  0.9888952692287589  1.0000
  F   F2        1.0  0.5842576430296231  0.44480781638826605  0.9888953686979362  1.0000
  F   F3        1.0  0.6666609272843221  0.655488767369854  0.9886273282073353  1.0000
  C   C9        1.0  0.7522694059043893  0.5501764899125177  0.6969557258477392  1.0000
  H   H1        1.0  0.6636542139404191  0.5970585387397824  0.35263809979782956  1.0000
  H   H2        1.0  0.5092720958115897  0.5444948048994686  0.7546848578086808  1.0000
  H   H3        1.0  0.8205888486014009  0.5444947243377731  0.7546848168677653  1.0000
  C   C10       1.0  0.1608811830632264  0.168940397492785  0.4059184498110406  1.0000
  C   C11       1.0  0.138146118304856  0.2533726764028847  0.2768534855130085  1.0000
  C   C12       1.0  0.12442144845185643  0.18945394635619284  0.14696966096856068  1.0000
  C   C13       1.0  0.13347866711838718  0.03973365383902049  0.1452100400627454  1.0000
  C   C14       1.0  0.1544213801263079  0.9539973808407225  0.2725020289432966  1.0000
  C   C15       1.0  0.16680267561859055  0.016136023274458504  0.4043576374777089  1.0000
  N   N3        1.0  0.10227381514496958  0.2769980714528432  0.016486198018803796  1.0000
  H   H4        1.0  0.27080218818128543  0.24585109508631442  0.7217801304450442  1.0000
  H   H5        1.0  0.13327615551362393  0.3699702106408371  0.2762990878328764  1.0000
  H   H6        1.0  0.1233758438802599  0.989116356600235  0.04527754113805415  1.0000
  H   H7        1.0  0.15865931283203372  0.837869347504304  0.26836859964285636  1.0000
  H   H8        1.0  0.23693465941703984  0.7171989970852279  0.6192554161994617  1.0000
  H   H9        1.0  0.0956220518473252  0.3890723808282457  0.016439320460811542  1.0000
  H   H10       1.0  0.09227143548462013  0.23037732018138804  0.9189272148298668  1.0000
  C   C16       1.0  0.1621351343891806  0.5962276330007905  0.9813149163199144  1.0000
  C   C17       1.0  0.23113741171003613  0.6813530607860181  0.04789459890449565  1.0000
  C   C18       1.0  0.3043877693301864  0.7545959114752638  0.9669947476638233  1.0000
  C   C19       1.0  0.30922728781283637  0.7430455171310926  0.8180386129649899  1.0000
  C   C20       1.0  0.24055695453658496  0.6610978009348195  0.7497505133349528  1.0000
  C   C21       1.0  0.16554870072467742  0.5888487117576611  0.8289611376804733  1.0000
  N   N4        1.0  0.374496944642249  0.8395206542382696  0.03658004522494407  1.0000
  H   H11       1.0  0.015858593441203  0.31424167483172427  0.10775474014076147  1.0000
  H   H12       1.0  0.22944743992208316  0.6881945060887475  0.16390212365105336  1.0000
  H   H13       1.0  0.36577636288981874  0.7987784413751204  0.7544051663726004  1.0000
  H   H14       1.0  0.24483387277191027  0.657085281340799  0.6335848566995534  1.0000
  H   H15       1.0  0.06409203798186458  0.40331268026924816  0.5632211733293429  1.0000
  H   H16       1.0  0.37175671692924417  0.8485666023540374  0.1479333019094149  1.0000
  H   H17       1.0  0.42964464977912575  0.8941192125784798  0.9772373730775921  1.0000
  Zn  Zn1       1.0  0.058058490218439146  0.5925398665969046  0.40514010613034496  1.0000
  Zn  Zn2       1.0  0.26961610267255703  0.5925358286028368  0.40513528827190703  1.0000
  C   C22       1.0  0.16486114952911082  0.5844968831115236  0.6687484408008724  1.0000
  C   C23       1.0  0.1628157668564106  0.6005806308983057  0.14152709185159074  1.0000
  C   C24       1.0  0.16565524530269807  0.8560480514167259  0.39890136474088034  1.0000
  C   C25       1.0  0.16202158708937828  0.329027728827497  0.411374248052536  1.0000
  O   O1        1.0  0.24332916072835928  0.6020337111702987  0.1952939447584987  1.0000
  O   O2        1.0  0.24491507912065413  0.5830396534909702  0.6149775177930066  1.0000
  O   O3        1.0  0.24555524526370798  0.8023206430874608  0.39707409192301557  1.0000
  O   O4        1.0  0.2426889220313544  0.38275273283626987  0.41319726239665283  1.0000
  O   O5        1.0  0.08498559866539113  0.8023229623664863  0.39707813199964903  1.0000
  O   O6        1.0  0.08434544432153282  0.5830437065386165  0.6149814777227365  1.0000
  O   O7        1.0  0.08275951865416852  0.602037729055451  0.19529616956417015  1.0000
  O   O8        1.0  0.08211928031686444  0.3827567394619747  0.4131995954282115  1.0000
