data_image0
_chemical_formula_structural       NC5OC5NC4H8C9H8C7OH5Zn2C4O8
_chemical_formula_sum              "N2 C34 O10 H21 Zn2"
_cell_length_a       19.189071930511275
_cell_length_b       9.275152443626249
_cell_length_c       9.274074313596556
_cell_angle_alpha    85.92156872667384
_cell_angle_beta     90.21172444201244
_cell_angle_gamma    90.56463589314393

_space_group_name_H-M_alt    "P 1"
_space_group_IT_number       1

loop_
  _space_group_symop_operation_xyz
  'x, y, z'

loop_
  _atom_site_type_symbol
  _atom_site_label
  _atom_site_symmetry_multiplicity
  _atom_site_fract_x
  _atom_site_fract_y
  _atom_site_fract_z
  _atom_site_occupancy
  N   N1        1.0  0.6606334946232308  0.5629574073672483  0.4043100229763807  1.0000
  C   C1        1.0  0.6063831051292338  0.6139852873712756  0.3838339903569145  1.0000
  C   C2        1.0  0.5389026078748403  0.677455463599167  0.3583648856886099  1.0000
  C   C3        1.0  0.5294998539879379  0.7840119700959591  0.2454441669880847  1.0000
  C   C4        1.0  0.4639505075996739  0.8457476317713675  0.2208433065782549  1.0000
  C   C5        1.0  0.4071415489183808  0.800797016824051  0.3076595194967141  1.0000
  O   O1        1.0  0.3424356395193999  0.8665419065396304  0.2805312296440341  1.0000
  C   C6        1.0  0.27719823119846  0.8005803187739456  0.3070341077917497  1.0000
  C   C7        1.0  0.22091989539611503  0.8870944949320987  0.3403177771526619  1.0000
  C   C8        1.0  0.154873580720248  0.8256851969550325  0.36586158110331635  1.0000
  C   C9        1.0  0.1444404063077713  0.6769473702288551  0.35689711250649014  1.0000
  C   C10       1.0  0.0764484139058842  0.613705340624038  0.38302518450053835  1.0000
  N   N2        1.0  0.0217868517804424  0.5628609508295451  0.4040314810036204  1.0000
  C   C11       1.0  0.20023955392986856  0.5900698791065215  0.32148677078921595  1.0000
  C   C12       1.0  0.26627731804621474  0.651523462550114  0.2959912407483755  1.0000
  C   C13       1.0  0.4170349384353388  0.6952607707875333  0.42237280367740226  1.0000
  C   C14       1.0  0.4825754871364403  0.6335212185329382  0.44704179516617626  1.0000
  H   H1        1.0  0.5727842359552147  0.8194518426861226  0.17663468151250306  1.0000
  H   H2        1.0  0.4571424336968439  0.9282438809225906  0.13347276172727107  1.0000
  H   H3        1.0  0.22852555574681294  0.0022154130350426965  0.3472185477892694  1.0000
  H   H4        1.0  0.11200831563440568  0.894113945681262  0.3923758786539762  1.0000
  H   H5        1.0  0.19262466901233904  0.47510192810932295  0.31283769291948405  1.0000
  H   H6        1.0  0.3084269518279774  0.5832893505876111  0.2656877004170266  1.0000
  H   H7        1.0  0.3744766909687422  0.6622661804228394  0.49389645450816566  1.0000
  H   H8        1.0  0.48939817739448876  0.5522007798772826  0.5356196120882537  1.0000
  C   C15       1.0  0.8391607409552674  0.13929189712938927  0.4056437330749915  1.0000
  C   C16       1.0  0.8137742947951079  0.2208360781866432  0.2832217402979924  1.0000
  C   C17       1.0  0.7948609852652889  0.15417528093950694  0.15850234305148952  1.0000
  C   C18       1.0  0.8010361154284021  0.004784944075690415  0.15373547234272106  1.0000
  C   C19       1.0  0.8250577436995407  0.9215428221285644  0.2751237278856935  1.0000
  C   C20       1.0  0.8432662722793379  0.9865155527764015  0.40271021427775  1.0000
  C   C21       1.0  0.781894939461915  0.936372497759114  0.02458034966049971  1.0000
  C   C22       1.0  0.7658686573831383  0.8790596310600741  0.9164331833817587  1.0000
  C   C23       1.0  0.7464239270456074  0.8095086033127576  0.7852155637054092  1.0000
  H   H9        1.0  0.9398768629563583  0.22374210490880045  0.6934012174862687  1.0000
  H   H10       1.0  0.8101024571598249  0.3373500939427392  0.2827712224278027  1.0000
  H   H11       1.0  0.7760405548193375  0.21950373236499687  0.06517396509482998  1.0000
  H   H12       1.0  0.8279837033475552  0.8051925415878104  0.271100906615328  1.0000
  H   H13       1.0  0.9088476747871859  0.6931312934166047  0.5995292215960405  1.0000
  H   H14       1.0  0.7591907308134376  0.6929155445767984  0.7986701274674792  1.0000
  H   H15       1.0  0.6896646176643382  0.8219126277495981  0.7655286881675596  1.0000
  H   H16       1.0  0.7756651119230601  0.8609335093538016  0.6919027428939586  1.0000
  C   C24       1.0  0.8403589711224639  0.558749172149007  0.9809508438794405  1.0000
  C   C25       1.0  0.779804042606085  0.6013538287100393  0.050739100539278534  1.0000
  C   C26       1.0  0.722736928961099  0.6555508154334035  0.9714134845137643  1.0000
  C   C27       1.0  0.7248906804150539  0.6685846627100742  0.8200867391814263  1.0000
  C   C28       1.0  0.7844962489707327  0.6242386607180808  0.7491653525352721  1.0000
  C   C29       1.0  0.8420680126959408  0.5670581993542658  0.827403191446763  1.0000
  C   C30       1.0  0.6652280839242213  0.726749356724335  0.7345409287315521  1.0000
  O   O2        1.0  0.6108137544144022  0.7669570807415633  0.7951501581618912  1.0000
  H   H17       1.0  0.010453333044163404  0.5219508991167525  0.08773533904337635  1.0000
  H   H18       1.0  0.6771728408514397  0.6885863424044525  0.028736061993200442  1.0000
  H   H19       1.0  0.7853376337912399  0.6312292672667694  0.6319838612352628  1.0000
  H   H20       1.0  0.9563777038243025  0.5370451912028544  0.54995290136238  1.0000
  H   H21       1.0  0.667745093269196  0.7355048397526073  0.617639184884955  1.0000
  Zn  Zn1       1.0  0.7648545590799748  0.5629258053867345  0.4042379716580439  1.0000
  Zn  Zn2       1.0  0.9175657715234468  0.5628809116968605  0.4041153568252531  1.0000
  C   C31       1.0  0.841715582652814  0.5597408273805877  0.6674254301069635  1.0000
  C   C32       1.0  0.8407064246580902  0.5660677107489003  0.14092803219174654  1.0000
  C   C33       1.0  0.8424750520269241  0.8263158436084119  0.39752157002819266  1.0000
  C   C34       1.0  0.8399468949308377  0.2994909621361613  0.4108319751512765  1.0000
  O   O3        1.0  0.8987761120028815  0.5685005488392865  0.19457132809966127  1.0000
  O   O4        1.0  0.8995501659444736  0.5572728236886058  0.613688661268535  1.0000
  O   O5        1.0  0.9001626688590317  0.7725355355341542  0.3957393800740934  1.0000
  O   O6        1.0  0.8981635568101501  0.35323784626768506  0.4125205012381654  1.0000
  O   O7        1.0  0.7842567216804212  0.7725688708327259  0.39583282727938807  1.0000
  O   O8        1.0  0.7836442270061553  0.5573078913889087  0.6137820256273261  1.0000
  O   O9        1.0  0.7828701693686843  0.5685355492606072  0.19466295985989407  1.0000
  O   O10       1.0  0.7822576143412765  0.3532728374318752  0.4126122410885919  1.0000
