data_image0
_chemical_formula_structural       NC9NC3SH6C6NO2H5C7NC2NH8Zn2C4O8
_chemical_formula_sum              "N5 C31 S1 H19 O10 Zn2"
_cell_length_a       16.77567553997237
_cell_length_b       9.273392599741053
_cell_length_c       9.27399911348925
_cell_angle_alpha    85.18319751875556
_cell_angle_beta     90.06803896743476
_cell_angle_gamma    90.29770283283837

_space_group_name_H-M_alt    "P 1"
_space_group_IT_number       1

loop_
  _space_group_symop_operation_xyz
  'x, y, z'

loop_
  _atom_site_type_symbol
  _atom_site_label
  _atom_site_symmetry_multiplicity
  _atom_site_fract_x
  _atom_site_fract_y
  _atom_site_fract_z
  _atom_site_occupancy
  N   N1        1.0  0.7465818185879373  0.6126605145587534  0.4191973076039899  1.0000
  C   C1        1.0  0.6913720191530208  0.6670289458159246  0.46555191246649574  1.0000
  C   C2        1.0  0.6228558906927478  0.7344965785821954  0.523074431765528  1.0000
  C   C3        1.0  0.6240943269297788  0.8313864272482655  0.6289323782685732  1.0000
  C   C4        1.0  0.5480691946145163  0.8793519907188823  0.6640612374330306  1.0000
  C   C5        1.0  0.48665900263831335  0.8200261192384165  0.5854491950833818  1.0000
  C   C6        1.0  0.3999641815324121  0.8488623074053887  0.5975733918635233  1.0000
  C   C7        1.0  0.343859717643009  0.7610555095688221  0.5325982571718759  1.0000
  C   C8        1.0  0.2620311183574487  0.7876695974899406  0.5435431841535434  1.0000
  C   C9        1.0  0.2052810898849801  0.6969132161838644  0.4770107070660343  1.0000
  N   N2        1.0  0.15967098424830167  0.6239580887231031  0.42352842476229013  1.0000
  C   C10       1.0  0.23547573160945584  0.9024401895116132  0.619284962561685  1.0000
  C   C11       1.0  0.29048916629105836  0.9904277938040524  0.6837474875409837  1.0000
  C   C12       1.0  0.3721567586746836  0.9642141901371863  0.6731308642220408  1.0000
  S   S1        1.0  0.5282505423029626  0.7076516962132634  0.4728259349480184  1.0000
  H   H1        1.0  0.6781328162289518  0.866320246227928  0.6798768320393287  1.0000
  H   H2        1.0  0.539112470292546  0.954034243850925  0.7458967265333736  1.0000
  H   H3        1.0  0.36335943660237163  0.6712930647845421  0.47410697358600906  1.0000
  H   H4        1.0  0.1723392043191903  0.9239683202532646  0.6283220091287918  1.0000
  H   H5        1.0  0.2698138081065066  0.07951429275193299  0.7418844200191448  1.0000
  H   H6        1.0  0.4130277554708002  0.03555528012429753  0.7230348246733733  1.0000
  C   C13       1.0  0.9555629549261133  0.19485518836922175  0.4204808354442475  1.0000
  C   C14       1.0  0.945834036519096  0.2790717746019262  0.28853589275215574  1.0000
  C   C15       1.0  0.9290555658614331  0.21461217904660687  0.16130103747770197  1.0000
  C   C16       1.0  0.9214484551038602  0.06397740715254785  0.16246113338731916  1.0000
  C   C17       1.0  0.9324239362673629  0.9786352188360419  0.29341269145322757  1.0000
  C   C18       1.0  0.9506975007154365  0.041752410428548485  0.42225743914726266  1.0000
  N   N3        1.0  0.903443199266277  0.9981033087172799  0.030981324052564478  1.0000
  O   O1        1.0  0.8933941942295338  0.08203090505010026  0.9027410679180905  1.0000
  O   O2        1.0  0.8964232938721214  0.8639760843525292  0.03113813818937539  1.0000
  H   H7        1.0  0.9381977542287274  0.26780785312831235  0.7745329467370012  1.0000
  H   H8        1.0  0.9493322117684923  0.39604656995510235  0.28430834844000263  1.0000
  H   H9        1.0  0.9212282576665851  0.28317019880380667  0.062022144844212874  1.0000
  H   H10       1.0  0.9285706349679927  0.8619188319892036  0.2943996676838563  1.0000
  H   H11       1.0  0.9417183531751886  0.7413587751793933  0.6615691762425471  1.0000
  C   C19       1.0  0.9544856532925083  0.6220320167927795  0.9975399411631677  1.0000
  C   C20       1.0  0.017452561989284243  0.5546944035839529  0.0765356526879728  1.0000
  C   C21       1.0  0.07520216700769544  0.4769465543585536  0.00831781369246154  1.0000
  C   C22       1.0  0.07154047870351765  0.46383995761486596  0.8589549628832538  1.0000
  C   C23       1.0  0.009759204678725375  0.5336455621615674  0.7784182937371202  1.0000
  C   C24       1.0  0.9517747994997358  0.6145756190798763  0.8451983208814573  1.0000
  C   C25       1.0  0.13320795804004606  0.37927069005268255  0.7887198671976687  1.0000
  N   N4        1.0  0.20024581168656175  0.3307122693050606  0.8573528324130875  1.0000
  C   C26       1.0  0.23924670928777036  0.25961577730292085  0.7582830432211081  1.0000
  C   C27       1.0  0.19566596024926944  0.26561156352358184  0.6322995394699467  1.0000
  N   N5        1.0  0.1289755762589413  0.3407981433466265  0.6515995330979285  1.0000
  H   H12       1.0  0.8685920948488958  0.8017220925316926  0.26360933368049433  1.0000
  H   H13       1.0  0.021038626622978056  0.5590843081841481  0.1927336643226114  1.0000
  H   H14       1.0  0.12225167090048951  0.42510308175361566  0.07342420404632466  1.0000
  H   H15       1.0  0.007809941418325917  0.5296899222858136  0.6622844399097798  1.0000
  H   H16       1.0  0.8269413193266106  0.6925604854918634  0.5583029600505758  1.0000
  H   H17       1.0  0.29594792642859113  0.20627500748274485  0.7771275473588695  1.0000
  H   H18       1.0  0.21124237271947705  0.2178798986411905  0.5336662681073818  1.0000
  H   H19       1.0  0.08375659938489632  0.3614218813570249  0.5754671870266508  1.0000
  Zn  Zn1       1.0  0.865790426889853  0.6159168270488271  0.42045550982390156  1.0000
  Zn  Zn2       1.0  0.04046240065791995  0.6206899085009614  0.4222820503966249  1.0000
  C   C28       1.0  0.9523184330058937  0.6102403757720234  0.6849607015013524  1.0000
  C   C29       1.0  0.953936291048584  0.6263682300999642  0.15777702413992878  1.0000
  C   C30       1.0  0.9516314636306139  0.8817213143529901  0.4161702476459128  1.0000
  C   C31       1.0  0.9546232105276482  0.35488555672655364  0.4265675506850788  1.0000
  O   O3        1.0  0.020039059937255965  0.6296285714598754  0.2122472024017088  1.0000
  O   O4        1.0  0.018787658151188987  0.610601608609403  0.631876407520154  1.0000
  O   O5        1.0  0.01823202331147189  0.8298258622395043  0.41482620809593773  1.0000
  O   O6        1.0  0.020594635460078115  0.41040432746839084  0.42929729300826347  1.0000
  O   O7        1.0  0.885658132480738  0.8262024064542153  0.4134402665813661  1.0000
  O   O8        1.0  0.8862137576097137  0.6069798859893767  0.6304903926849748  1.0000
  O   O9        1.0  0.8874651652868709  0.6260068138551952  0.2108594522200271  1.0000
  O   O10       1.0  0.8880207405196308  0.4067825585979119  0.42790965101334666  1.0000
