data_image0
_chemical_formula_structural       NC5NC3F3CH3C6NCH9C6H6Zn2C4O8
_chemical_formula_sum              "N3 C26 F3 H18 Zn2 O8"
_cell_length_a       13.85151926108384
_cell_length_b       9.273386996610926
_cell_length_c       10.681121600428288
_cell_angle_alpha    85.46621756597041
_cell_angle_beta     89.99987223705872
_cell_angle_gamma    89.3985898819531

_space_group_name_H-M_alt    "P 1"
_space_group_IT_number       1

loop_
  _space_group_symop_operation_xyz
  'x, y, z'

loop_
  _atom_site_type_symbol
  _atom_site_label
  _atom_site_symmetry_multiplicity
  _atom_site_fract_x
  _atom_site_fract_y
  _atom_site_fract_z
  _atom_site_occupancy
  N   N1        1.0  0.8979893757231608  0.5788742283036641  0.6164061857063161  1.0000
  C   C1        1.0  0.8257235982986497  0.5697909313156762  0.6706840970947359  1.0000
  C   C2        1.0  0.7358192909682418  0.5584900642218631  0.7382135836280166  1.0000
  C   C3        1.0  0.6482285196489573  0.5677149144327069  0.6725918761097942  1.0000
  C   C4        1.0  0.5607673015568084  0.5584900510713438  0.7382135662219528  1.0000
  C   C5        1.0  0.4707043460657002  0.5697909474713583  0.6706841787882878  1.0000
  N   N2        1.0  0.3983111903760919  0.5788741904007955  0.6164062773677259  1.0000
  C   C6        1.0  0.5608946074319011  0.5390419951301033  0.8696113230148308  1.0000
  C   C7        1.0  0.64851687483907  0.5266261548042444  0.9363339905388748  1.0000
  C   C8        1.0  0.6486261733957751  0.5110432138516074  0.07797312468518149  1.0000
  F   F1        1.0  0.7300864377914253  0.43620070410533857  0.12290677539087203  1.0000
  F   F2        1.0  0.5682176233456686  0.43620067349448916  0.12290686169399279  1.0000
  F   F3        1.0  0.6476713377908312  0.6469078580503482  0.12270771208517875  1.0000
  C   C9        1.0  0.7359649349424072  0.5390418998413049  0.8696113401923278  1.0000
  H   H1        1.0  0.6481217444150669  0.5829325488969239  0.570858843309298  1.0000
  H   H2        1.0  0.49280767590108815  0.5338620556179121  0.9197012572559513  1.0000
  H   H3        1.0  0.8041244299890699  0.533861974688846  0.9197012217192686  1.0000
  C   C10       1.0  0.15112363648458027  0.15522023552486042  0.6170215882456644  1.0000
  C   C11       1.0  0.16807494508145654  0.23869583358156454  0.5037919195853224  1.0000
  C   C12       1.0  0.17593635426216933  0.1741929432271041  0.39055525065479313  1.0000
  C   C13       1.0  0.16696537632009095  0.023892278811050712  0.38765305180463416  1.0000
  C   C14       1.0  0.15171537950027397  0.9394537663352458  0.5004893861279338  1.0000
  C   C15       1.0  0.1451862134054378  0.0025170921117065874  0.615801701996052  1.0000
  N   N3        1.0  0.1740106677898046  0.9543529637970491  0.272078499740345  1.0000
  C   C16       1.0  0.1900932738105694  0.032249459408215664  0.14987336749188418  1.0000
  H   H4        1.0  0.1708472177457403  0.4173649566865718  0.8226195715898015  1.0000
  H   H5        1.0  0.17299902117243304  0.3553417268221868  0.5022555308476826  1.0000
  H   H6        1.0  0.18811114330412965  0.2427950607379814  0.3054915095548996  1.0000
  H   H7        1.0  0.14715857666782606  0.8230526968359962  0.4985138280988062  1.0000
  H   H8        1.0  0.18073201876529676  0.8711551432022447  0.9208141925330883  1.0000
  H   H9        1.0  0.16718534239938276  0.841985841365486  0.2746753319802384  1.0000
  H   H10       1.0  0.13024471576206498  0.11082302208959229  0.12811504399946252  1.0000
  H   H11       1.0  0.25996989021689343  0.08980120639185252  0.15007545293737334  1.0000
  H   H12       1.0  0.19252698269198953  0.9548128647179579  0.07573620600678677  1.0000
  C   C17       1.0  0.1481549563515252  0.578868653377963  0.24866640485901664  1.0000
  C   C18       1.0  0.07961719829286418  0.49863225335915184  0.1873594277708113  1.0000
  C   C19       1.0  0.07961713736933822  0.49863234586487226  0.05647728768472394  1.0000
  C   C20       1.0  0.14815487996207244  0.5788687240978326  0.9841568404335312  1.0000
  C   C21       1.0  0.21663607080817812  0.6590386321698565  0.04546333289907434  1.0000
  C   C22       1.0  0.21663605861329915  0.659038609799135  0.17635563159432732  1.0000
  H   H13       1.0  0.21746479247946668  0.6600097002812486  0.5418073343644476  1.0000
  H   H14       1.0  0.025894067984447725  0.43573917088239017  0.24048680548506043  1.0000
  H   H15       1.0  0.025894047346076716  0.43573923879165144  0.01198277616175281  1.0000
  H   H16       1.0  0.27036621615538015  0.7219400023356708  0.9923802786212996  1.0000
  H   H17       1.0  0.2703661678686826  0.7219399517617577  0.22080464617851386  1.0000
  H   H18       1.0  0.21746509730928  0.6600091976465754  0.679878309374726  1.0000
  Zn  Zn1       1.0  0.042371471052033115  0.5788703659511547  0.6164134358300415  1.0000
  Zn  Zn2       1.0  0.25392916004982374  0.5788662854634969  0.6164092547961602  1.0000
  C   C23       1.0  0.14819304058749982  0.5731213636389174  0.84514169019227  1.0000
  C   C24       1.0  0.1481098879620124  0.5846171080361002  0.3876811206804092  1.0000
  C   C25       1.0  0.14630356003292144  0.8423599643089905  0.6110419678691773  1.0000
  C   C26       1.0  0.14999930847280374  0.31537677406306774  0.6217809122656954  1.0000
  O   O1        1.0  0.22837984713586496  0.5865384994661387  0.4343341516064299  1.0000
  O   O2        1.0  0.2284904798778662  0.5711957868618833  0.7984851270341605  1.0000
  O   O3        1.0  0.22696361815347826  0.7886093619107448  0.6094479428255122  1.0000
  O   O4        1.0  0.22990663659763083  0.36912493473895935  0.6233712419055051  1.0000
  O   O5        1.0  0.06639392230995833  0.7886117166786557  0.6094514487155337  1.0000
  O   O6        1.0  0.06792077188386571  0.5711998749357159  0.798488563656826  1.0000
  O   O7        1.0  0.06781013955845251  0.5865425372660769  0.43433608267889245  1.0000
  O   O8        1.0  0.06933692908857303  0.36912896222017855  0.6233732668823789  1.0000
