data_image0
_chemical_formula_structural       NC9NC3OH6C7NH5C8H10Zn2C4O8
_chemical_formula_sum              "N3 C31 O9 H21 Zn2"
_cell_length_a       15.78231758774541
_cell_length_b       10.302819778424748
_cell_length_c       9.275657083861812
_cell_angle_alpha    85.85420737229721
_cell_angle_beta     89.58874472212383
_cell_angle_gamma    89.6314472413266

_space_group_name_H-M_alt    "P 1"
_space_group_IT_number       1

loop_
  _space_group_symop_operation_xyz
  'x, y, z'

loop_
  _atom_site_type_symbol
  _atom_site_label
  _atom_site_symmetry_multiplicity
  _atom_site_fract_x
  _atom_site_fract_y
  _atom_site_fract_z
  _atom_site_occupancy
  N   N1        1.0  0.8059516288871079  0.4054218306017603  0.41263539179397046  1.0000
  C   C1        1.0  0.7572842819529823  0.3235081908107842  0.4393632975301434  1.0000
  C   C2        1.0  0.6968620005954066  0.22183345473826566  0.4725395142507917  1.0000
  C   C3        1.0  0.7163140613133786  0.09411318958398662  0.5141260455217198  1.0000
  C   C4        1.0  0.6394810301710996  0.032215336181128595  0.5343632568003069  1.0000
  C   C5        1.0  0.5778559576925445  0.12674316403760555  0.5036302843862412  1.0000
  C   C6        1.0  0.4847356927965557  0.1092668895350275  0.5094141999701085  1.0000
  C   C7        1.0  0.43116789438638103  0.21642517438535003  0.4743913415425061  1.0000
  C   C8        1.0  0.3429373563822777  0.202095085431077  0.47914196188898056  1.0000
  C   C9        1.0  0.2886782659672907  0.3123711533795246  0.4430909418542172  1.0000
  N   N2        1.0  0.24506683577580263  0.40101887778189993  0.4141091438150122  1.0000
  C   C10       1.0  0.3075930541785051  0.08044723209516925  0.5189698226333392  1.0000
  C   C11       1.0  0.3602302620346056  0.9735105165940917  0.5539251085756169  1.0000
  C   C12       1.0  0.4482744842307475  0.9874469284191495  0.5493035836121896  1.0000
  O   O1        1.0  0.6144993144355532  0.23877042174718044  0.46709953957515404  1.0000
  H   H1        1.0  0.778703758553309  0.051041070432466196  0.5280940736200885  1.0000
  H   H2        1.0  0.6305810352069573  0.9304384715405457  0.5675193715715807  1.0000
  H   H3        1.0  0.45793029293206305  0.3110887497173942  0.4433929629479141  1.0000
  H   H4        1.0  0.2394564043283831  0.06831038042154924  0.522990995171555  1.0000
  H   H5        1.0  0.3327386182474639  0.8794941127890602  0.5847120363493012  1.0000
  H   H6        1.0  0.4872207047723751  0.9027455617061032  0.5769997889731402  1.0000
  C   C13       1.0  0.02551323739006683  0.021967319743066312  0.41337847654552395  1.0000
  C   C14       1.0  0.9754126220289665  0.01315429871782214  0.5394444881939995  1.0000
  C   C15       1.0  0.9504870724741636  0.8916671576546069  0.6021635212084058  1.0000
  C   C16       1.0  0.9754126903895142  0.7778532882435586  0.5394444931475959  1.0000
  C   C17       1.0  0.025513251137922577  0.7844633469855883  0.413378519437436  1.0000
  C   C18       1.0  0.050301809894825994  0.9070308667935932  0.3510042014468584  1.0000
  C   C19       1.0  0.8991266788540886  0.8837616272249433  0.7313997084354664  1.0000
  N   N3        1.0  0.857849729208044  0.8774081973923682  0.835263210790145  1.0000
  H   H7        1.0  0.04449013129224565  0.3526279054968049  0.36562712225635186  1.0000
  H   H8        1.0  0.9556534990281297  0.10053721256101246  0.5891632855809168  1.0000
  H   H9        1.0  0.9556536049522728  0.6843876072162474  0.5891632516902658  1.0000
  H   H10       1.0  0.08893763366005736  0.9129777134302248  0.25378663245574495  1.0000
  H   H11       1.0  0.044490208464219555  0.45964482464262696  0.36562723207780645  1.0000
  C   C20       1.0  0.02767154162500241  0.40123657248784156  0.9900658687921227  1.0000
  C   C21       1.0  0.0715629914636004  0.49976453581411895  0.055153560562746  1.0000
  C   C22       1.0  0.10797274964065545  0.6039242136233991  0.9715371767791638  1.0000
  C   C23       1.0  0.10174859664520358  0.6086575797336993  0.8208774014347249  1.0000
  C   C24       1.0  0.05968721702912739  0.5106925446051815  0.7543432478246346  1.0000
  C   C25       1.0  0.0233549398588908  0.40519412676262734  0.8366911684257312  1.0000
  C   C26       1.0  0.15578156675154908  0.7075560812298742  0.04289753411691355  1.0000
  C   C27       1.0  0.24885088067436312  0.6695759862220825  0.061054498785062306  1.0000
  H   H12       1.0  0.9896382067486722  0.1945012770788053  0.2877652646493689  1.0000
  H   H13       1.0  0.07594393838944441  0.4973136202978792  0.17189328938521187  1.0000
  H   H14       1.0  0.13031380285851024  0.6877220235803154  0.7545870432428043  1.0000
  H   H15       1.0  0.05750678396286821  0.5157739172779954  0.6373616099785036  1.0000
  H   H16       1.0  0.9233124279000908  0.256568409379593  0.5685210089722612  1.0000
  H   H17       1.0  0.15114125364349495  0.8018544857518395  0.9770416573089968  1.0000
  H   H18       1.0  0.12759978010250594  0.7225424427073781  0.1506794477922162  1.0000
  H   H19       1.0  0.2548827846288477  0.5771569468034372  0.12982292268587914  1.0000
  H   H20       1.0  0.27866874805686903  0.6573282360845978  0.9539797578761359  1.0000
  H   H21       1.0  0.28292517186630595  0.7471691556427207  0.11373546942427827  1.0000
  Zn  Zn1       1.0  0.932670746131366  0.404147804485162  0.41306900240524547  1.0000
  Zn  Zn2       1.0  0.11834762995733134  0.4022823627331802  0.4136873171262274  1.0000
  C   C28       1.0  0.02416898170350822  0.39927398818024384  0.6766608288497409  1.0000
  C   C29       1.0  0.026851421249633346  0.40715779745055963  0.15009563891929933  1.0000
  C   C30       1.0  0.025538172885559915  0.6403085964856576  0.4076341601526354  1.0000
  C   C31       1.0  0.02548216631717226  0.16612163031250016  0.41912238425893555  1.0000
  O   O2        1.0  0.09703959110842876  0.40843142519631276  0.20403773887780252  1.0000
  O   O3        1.0  0.09490527251369069  0.3965835519435794  0.6231876004951871  1.0000
  O   O4        1.0  0.09600995418624286  0.5912220629986757  0.40594665895085713  1.0000
  O   O5        1.0  0.0959348466280105  0.213792923559923  0.4212785721270138  1.0000
  O   O6        1.0  0.9550834660983181  0.5926372442963814  0.40547774718587637  1.0000
  O   O7        1.0  0.9539787848138064  0.39800029271189247  0.6227186118690924  1.0000
  O   O8        1.0  0.9561131123014047  0.4098481126203075  0.20356701712521486  1.0000
  O   O9        1.0  0.9550083672664832  0.21520960220317306  0.4208079584509621  1.0000
