data_image0
_chemical_formula_structural       NC9NC3SH6C6SCNH4C9H10Zn2C4O8
_chemical_formula_sum              "N3 C32 S2 H20 Zn2 O8"
_cell_length_a       16.77567553997237
_cell_length_b       10.302215558581764
_cell_length_c       9.272679976505533
_cell_angle_alpha    86.02649692228
_cell_angle_beta     90.7858477527611
_cell_angle_gamma    90.91242892959859

_space_group_name_H-M_alt    "P 1"
_space_group_IT_number       1

loop_
  _space_group_symop_operation_xyz
  'x, y, z'

loop_
  _atom_site_type_symbol
  _atom_site_label
  _atom_site_symmetry_multiplicity
  _atom_site_fract_x
  _atom_site_fract_y
  _atom_site_fract_z
  _atom_site_occupancy
  N   N1        1.0  0.744955824719108  0.4278695769106391  0.4176994414743078  1.0000
  C   C1        1.0  0.6903952757234242  0.4775275363310228  0.4638961642395316  1.0000
  C   C2        1.0  0.6226848207618985  0.5391497772393381  0.5212227628038886  1.0000
  C   C3        1.0  0.6252445537189721  0.6279996211110314  0.6267742938528136  1.0000
  C   C4        1.0  0.549751466660317  0.6717215245321949  0.6617700786579206  1.0000
  C   C5        1.0  0.4874347735009261  0.617108215979399  0.583360520933411  1.0000
  C   C6        1.0  0.4009962578512918  0.6432560237253273  0.5954144083049067  1.0000
  C   C7        1.0  0.3439131043014804  0.5632075837370045  0.5306836017092931  1.0000
  C   C8        1.0  0.26231932877431147  0.5873367206811644  0.5415639012873235  1.0000
  C   C9        1.0  0.2045621526949323  0.5046088485358211  0.47528328588210833  1.0000
  N   N2        1.0  0.1581424467785804  0.4381074966829681  0.42200346396559363  1.0000
  C   C10       1.0  0.2369782652228597  0.6918264404353021  0.6169962220984582  1.0000
  C   C11       1.0  0.2929678376764706  0.7720298547985938  0.6812146124526373  1.0000
  C   C12       1.0  0.3744052958470109  0.7482663037074118  0.6706614677297447  1.0000
  S   S1        1.0  0.527565584116627  0.5142135298100278  0.4710817058776997  1.0000
  H   H1        1.0  0.6798497159495671  0.6602294311801165  0.6775945000111647  1.0000
  H   H2        1.0  0.5418148922489848  0.740210248427853  0.7433691247770042  1.0000
  H   H3        1.0  0.36246837233406765  0.4814972262376876  0.4724335413400302  1.0000
  H   H4        1.0  0.1740329847362914  0.7113472958656859  0.6259807936150343  1.0000
  H   H5        1.0  0.2732304267535013  0.8531262148283985  0.7391120454232977  1.0000
  H   H6        1.0  0.4160510590570349  0.8132598783595356  0.7203700279709981  1.0000
  C   C13       1.0  0.9514736088882088  0.051714176730130575  0.41981099194769866  1.0000
  C   C14       1.0  0.031550848593764336  0.049957151973698995  0.4660094546133556  1.0000
  C   C15       1.0  0.07140246726140376  0.9320454363965472  0.4894557164204243  1.0000
  C   C16       1.0  0.03175854438680915  0.814787978791756  0.4661336904298812  1.0000
  C   C17       1.0  0.9516323108142845  0.8142531802827605  0.4199044568633419  1.0000
  C   C18       1.0  0.9119211213719012  0.9332472879836966  0.39705270289884  1.0000
  S   S2        1.0  0.17370695382425616  0.9313193874840751  0.5478370669193104  1.0000
  C   C19       1.0  0.14810914952408671  0.9191979535563206  0.7323129538910897  1.0000
  N   N3        1.0  0.1313032614086318  0.9112511065351825  0.853252423936691  1.0000
  H   H7        1.0  0.06327365229701298  0.1398467974853781  0.4842289388649643  1.0000
  H   H8        1.0  0.06362371516542953  0.7244000089799556  0.48443840593016846  1.0000
  H   H9        1.0  0.8501623642224625  0.9337528621647331  0.3614428254870945  1.0000
  H   H10       1.0  0.8006280450216399  0.6060374121975287  0.33261962359934616  1.0000
  C   C20       1.0  0.9499359032627493  0.42987774051535466  0.996477857761104  1.0000
  C   C21       1.0  0.004099570050214667  0.3509071060795868  0.07729861012794426  1.0000
  C   C22       1.0  0.06219153455766224  0.2825550538819635  0.009294318209583709  1.0000
  C   C23       1.0  0.06808424920867195  0.29092710642166275  0.8584944412728297  1.0000
  C   C24       1.0  0.012963248905231595  0.36811190613045386  0.77627922765772  1.0000
  C   C25       1.0  0.9531700313293505  0.4360896657742864  0.8432376803521331  1.0000
  C   C26       1.0  0.13360910463190545  0.21433881235039065  0.7930193295864267  1.0000
  C   C27       1.0  0.11461301409659379  0.15444979902969802  0.6507144245855345  1.0000
  C   C28       1.0  0.17071365291442175  0.2720948927351144  0.6534943461890977  1.0000
  H   H11       1.0  0.8299116864249734  0.514688274606528  0.2681890657129229  1.0000
  H   H12       1.0  0.0028360866627106245  0.3443265549424481  0.1943592616455474  1.0000
  H   H13       1.0  0.10345165894555497  0.2235754969213628  0.07534928680987553  1.0000
  H   H14       1.0  0.01474779474054478  0.37376893647746245  0.6595195894508237  1.0000
  H   H15       1.0  0.772194578294373  0.5537494303184776  0.7266645036807011  1.0000
  H   H16       1.0  0.17526551935007834  0.15696429392723954  0.8656324888680432  1.0000
  H   H17       1.0  0.05539847372888995  0.17513892346270032  0.6004186699762499  1.0000
  H   H18       1.0  0.1455604739799572  0.06174627001377749  0.6367315356370384  1.0000
  H   H19       1.0  0.14561548818884895  0.36418844391078764  0.6047709373424759  1.0000
  H   H20       1.0  0.23445879067114905  0.24814149225656768  0.6411324666093381  1.0000
  Zn  Zn1       1.0  0.8641925925089196  0.43082061406013356  0.418949823564716  1.0000
  Zn  Zn2       1.0  0.0389057170408671  0.43514595466344985  0.42076492054271086  1.0000
  C   C29       1.0  0.9525558646050006  0.4297430213788748  0.6831812476683443  1.0000
  C   C30       1.0  0.9505443536881593  0.4362252338293518  0.15653365796870777  1.0000
  C   C31       1.0  0.9515762866858487  0.6700748518955254  0.4141415177835579  1.0000
  C   C32       1.0  0.9515238719588093  0.1958918424843328  0.42557346390869416  1.0000
  O   O1        1.0  0.017051274264888727  0.4399912904489899  0.21093866579530052  1.0000
  O   O2        1.0  0.01865216117244328  0.42925881567092783  0.6301534413011634  1.0000
  O   O3        1.0  0.01786025154773752  0.6233297970943006  0.4129019467982582  1.0000
  O   O4        1.0  0.017843123860887822  0.2459203160445527  0.42819005157867407  1.0000
  O   O5        1.0  0.8852551260678553  0.6200462512043627  0.4115246919017652  1.0000
  O   O6        1.0  0.8860470357200196  0.42597682913468926  0.6287761097224833  1.0000
  O   O7        1.0  0.8844461422354661  0.4367092459529079  0.20955960080961278  1.0000
  O   O8        1.0  0.885237992239128  0.24263826305486674  0.42681109468553124  1.0000
