data_image0
_chemical_formula_structural       NC5NC3BrH3C6ClH5C7NH4Zn2C4O8
_chemical_formula_sum              "N3 C25 Br1 H12 Cl1 Zn2 O8"
_cell_length_a       13.839083392302014
_cell_length_b       10.30297070629231
_cell_length_c       9.275157849593905
_cell_angle_alpha    86.11098826397364
_cell_angle_beta     89.74163777479679
_cell_angle_gamma    90.02428142920579

_space_group_name_H-M_alt    "P 1"
_space_group_IT_number       1

loop_
  _space_group_symop_operation_xyz
  'x, y, z'

loop_
  _atom_site_type_symbol
  _atom_site_label
  _atom_site_symmetry_multiplicity
  _atom_site_fract_x
  _atom_site_fract_y
  _atom_site_fract_z
  _atom_site_occupancy
  N   N1        1.0  0.9146863449355666  0.40760757694889177  0.41036506116553206  1.0000
  C   C1        1.0  0.8426774591807391  0.350329450977263  0.4128281938581537  1.0000
  C   C2        1.0  0.7529602715603475  0.2790556570352072  0.4158930248812907  1.0000
  C   C3        1.0  0.665411313013764  0.34763652365388914  0.4129441861520837  1.0000
  C   C4        1.0  0.5773572478136162  0.2803811237969056  0.41583597249330717  1.0000
  C   C5        1.0  0.4876061008517569  0.35107827220194765  0.41279597704766213  1.0000
  N   N2        1.0  0.4154578261865619  0.40791323541121577  0.4103518620256763  1.0000
  C   C6        1.0  0.5767862772716887  0.1442645016109303  0.42168870029483974  1.0000
  C   C7        1.0  0.663890178242614  0.07557449190464949  0.42464214061210265  1.0000
  C   C8        1.0  0.7521402006067794  0.14218717181572793  0.42177801005084725  1.0000
  Br  Br1       1.0  0.869532199199917  0.043104580319059504  0.42603844138562663  1.0000
  H   H1        1.0  0.6657986770018862  0.4531153840757893  0.4084086180694919  1.0000
  H   H2        1.0  0.5090859586388744  0.09129647936411356  0.42396594586254954  1.0000
  H   H3        1.0  0.6627396430466093  0.9703199168530693  0.4291676874793573  1.0000
  C   C9        1.0  0.16507667331679277  0.026513001726728987  0.41036469099351214  1.0000
  C   C10       1.0  0.2647697929142656  0.023671525987535972  0.4381198816401868  1.0000
  C   C11       1.0  0.3142348583123946  0.9053048167824757  0.4518911657048379  1.0000
  C   C12       1.0  0.2647697923481853  0.7885635567294579  0.4381198138637305  1.0000
  C   C13       1.0  0.16507668337903425  0.7889979442610513  0.4103647734899869  1.0000
  C   C14       1.0  0.1157160826193058  0.9085665004847516  0.39662244054949136  1.0000
  Cl  Cl1       1.0  0.4387753174758704  0.9032586526655888  0.486563912291222  1.0000
  H   H4        1.0  0.1275240236713464  0.3548864471993254  0.39990898995889035  1.0000
  H   H5        1.0  0.304420169780631  0.11306666546617669  0.4491586717664531  1.0000
  H   H6        1.0  0.3044201318816344  0.6978654717169375  0.4491585682276831  1.0000
  H   H7        1.0  0.038829723532488154  0.9098296052851155  0.3752167588113078  1.0000
  H   H8        1.0  0.1275240181347388  0.46185848287958026  0.39990926204670046  1.0000
  C   C15       1.0  0.16635885316158583  0.4040864969202859  0.987166902204928  1.0000
  C   C16       1.0  0.24964425635897647  0.4464608395070377  0.05686074550527209  1.0000
  C   C17       1.0  0.32797291350391644  0.4990409236861401  0.976980522231973  1.0000
  C   C18       1.0  0.3239293048822515  0.5100823772322056  0.8263216819190196  1.0000
  C   C19       1.0  0.2426305221273577  0.46665794671386607  0.7552862444678041  1.0000
  C   C20       1.0  0.16379455090985418  0.41142437911997487  0.8335625405053984  1.0000
  C   C21       1.0  0.41220538193235146  0.5432238591366291  0.049981932834495035  1.0000
  N   N3        1.0  0.4799067186008079  0.5787350263698662  0.10866275205539466  1.0000
  H   H9        1.0  0.9312523625312583  0.36016920809412717  0.09501069309730736  1.0000
  H   H10       1.0  0.38409952446378304  0.5511854032699969  0.7634973044897739  1.0000
  H   H11       1.0  0.2424167586946469  0.47348341657675536  0.6382218106052666  1.0000
  H   H12       1.0  0.0065112890274325935  0.37640508703254766  0.5561601739040998  1.0000
  Zn  Zn1       1.0  0.05919815488364022  0.4076923747517171  0.41036958083679775  1.0000
  Zn  Zn2       1.0  0.2709459725471397  0.40781789896437387  0.41035916922687554  1.0000
  C   C22       1.0  0.1642770799609381  0.4048653573296226  0.6735756163028976  1.0000
  C   C23       1.0  0.16586935932094926  0.41064655708113657  0.14715327509423437  1.0000
  C   C24       1.0  0.16508912351228267  0.6448222391867473  0.40462192653976836  1.0000
  C   C25       1.0  0.1650572432820312  0.17068811604169065  0.41610704169363966  1.0000
  O   O1        1.0  0.24606227398649372  0.41289014504574667  0.20084221217751885  1.0000
  O   O2        1.0  0.2447958606478371  0.40271605633095753  0.6198783621987431  1.0000
  O   O3        1.0  0.2454505082918501  0.5964842854487209  0.4026963548763576  1.0000
  O   O4        1.0  0.24540755441466833  0.21912192423562057  0.4180241114486478  1.0000
  O   O5        1.0  0.08473650075699625  0.5963883494389828  0.4027046386109985  1.0000
  O   O6        1.0  0.08408185334144137  0.4026216794620531  0.6198865690930804  1.0000
  O   O7        1.0  0.08534827199380035  0.41279570791388176  0.2008486864153185  1.0000
  O   O8        1.0  0.0846935520906722  0.21902747875463063  0.4180306937336773  1.0000
