data_image0
_chemical_formula_structural       NC5NC3F3CH3C9H10C6BrH4Zn2C4O8
_chemical_formula_sum              "N2 C28 F3 H17 Br1 Zn2 O8"
_cell_length_a       13.85151926108384
_cell_length_b       10.297183801781406
_cell_length_c       9.27656775626242
_cell_angle_alpha    86.09344643719086
_cell_angle_beta     90.18621463620289
_cell_angle_gamma    89.99762972311773

_space_group_name_H-M_alt    "P 1"
_space_group_IT_number       1

loop_
  _space_group_symop_operation_xyz
  'x, y, z'

loop_
  _atom_site_type_symbol
  _atom_site_label
  _atom_site_symmetry_multiplicity
  _atom_site_fract_x
  _atom_site_fract_y
  _atom_site_fract_z
  _atom_site_occupancy
  N   N1        1.0  0.9055777702882419  0.4076546840544896  0.40992554399457076  1.0000
  C   C1        1.0  0.8333844003062881  0.4000266125363348  0.4723664855515133  1.0000
  C   C2        1.0  0.7435701785692711  0.390536248751939  0.5500519494466143  1.0000
  C   C3        1.0  0.6558795657322439  0.3981766260859869  0.47455909215253106  1.0000
  C   C4        1.0  0.5685181890221407  0.3905362367338332  0.5500519294036912  1.0000
  C   C5        1.0  0.4783651483911696  0.40002662791305665  0.47236657956669714  1.0000
  N   N2        1.0  0.40589958490545924  0.4076546508552792  0.4099256494143988  1.0000
  C   C6        1.0  0.5688385741195994  0.3743580778129454  0.701214040995888  1.0000
  C   C7        1.0  0.6565410982678133  0.36385554396337194  0.7779698590481542  1.0000
  C   C8        1.0  0.6568962026841345  0.3512616997613187  0.9409202173230332  1.0000
  F   F1        1.0  0.7379450086449748  0.28432576747648963  0.9925315118994263  1.0000
  F   F2        1.0  0.5760761942011366  0.284325740788997  0.9925316111627218  1.0000
  F   F3        1.0  0.6570047975257671  0.47405538730446595  0.992553082752262  1.0000
  C   C9        1.0  0.7439089010059289  0.37435799218434956  0.7012140606468475  1.0000
  H   H1        1.0  0.6556244232934852  0.410846634406639  0.35752395097750234  1.0000
  H   H2        1.0  0.5008408874231176  0.37020227758092844  0.7588409710233119  1.0000
  H   H3        1.0  0.8121576408553801  0.37020220434745416  0.7588409300388244  1.0000
  C   C10       1.0  0.15574711529028873  0.026180921727359203  0.410129734447658  1.0000
  C   C11       1.0  0.15260254502875048  0.034703150742376516  0.25850602687357593  1.0000
  C   C12       1.0  0.15099126642208366  0.922452850490782  0.18082476753695848  1.0000
  C   C13       1.0  0.15258995537768105  0.7995268729737681  0.2579183558345177  1.0000
  C   C14       1.0  0.15573950997339828  0.7891185554343989  0.40973384524198697  1.0000
  C   C15       1.0  0.15729661382737883  0.9029129645640187  0.4848485177308843  1.0000
  C   C16       1.0  0.14758992453208108  0.9411024377468261  0.016833021416496455  1.0000
  C   C17       1.0  0.09088588858814983  0.8416778440889555  0.9366231886641576  1.0000
  C   C18       1.0  0.20086171016175491  0.8419456704888268  0.9320459030957181  1.0000
  H   H4        1.0  0.1569679859930702  0.35043548752446685  0.468555212332874  1.0000
  H   H5        1.0  0.15138877014641872  0.12941556666904397  0.19997091043136273  1.0000
  H   H6        1.0  0.1514075446551729  0.7114250623415851  0.20100874824997006  1.0000
  H   H7        1.0  0.15972223193727714  0.8956104430527404  0.6018293921134334  1.0000
  H   H8        1.0  0.16167530744083303  0.5622437244135368  0.6964705569503649  1.0000
  H   H9        1.0  0.1464975597797411  0.04135295085770263  0.9641231913301048  1.0000
  H   H10       1.0  0.058813604540552754  0.7586188722651367  0.002195673079328003  1.0000
  H   H11       1.0  0.05660468850088841  0.8816513736712575  0.8346787004702989  1.0000
  H   H12       1.0  0.23559383363473307  0.7590501951708044  0.9948386845195372  1.0000
  H   H13       1.0  0.23085653506608317  0.8820733537580875  0.8274248634741981  1.0000
  C   C19       1.0  0.15482183091890067  0.40391657008553944  0.986806989486276  1.0000
  C   C20       1.0  0.06903143371742337  0.4351894188940874  0.05740158940247575  1.0000
  C   C21       1.0  0.9875309567017094  0.47716271283017514  0.9786788101665178  1.0000
  C   C22       1.0  0.9902900495073264  0.4887132967022623  0.8281769736235352  1.0000
  C   C23       1.0  0.07418780720119748  0.45603716649762654  0.7558560392203512  1.0000
  C   C24       1.0  0.1566648096649249  0.41138294622984867  0.833056638505965  1.0000
  Br  Br1       1.0  0.8787418222765528  0.5472050449599766  0.7208963829002895  1.0000
  H   H14       1.0  0.28763359830454416  0.2859256478289942  0.27770241657949946  1.0000
  H   H15       1.0  0.9224444573085391  0.5019303518352387  0.034983337990943  1.0000
  H   H16       1.0  0.07403579955595066  0.4626728331122927  0.6388021330378684  1.0000
  H   H17       1.0  0.3155126649922381  0.3979689789594389  0.5536688869068782  1.0000
  Zn  Zn1       1.0  0.04995985673995773  0.4076512797914451  0.4099338813370418  1.0000
  Zn  Zn2       1.0  0.26151750668904095  0.40764756306532113  0.4099290658185287  1.0000
  C   C25       1.0  0.1563143177198827  0.4047965048798856  0.6731000041384594  1.0000
  C   C26       1.0  0.1551653562036875  0.4105039782543196  0.1467630835367659  1.0000
  C   C27       1.0  0.15572346034436424  0.6448564404079122  0.4040669019487362  1.0000
  C   C28       1.0  0.1557561415722555  0.17044248267359824  0.41579626335747205  1.0000
  O   O1        1.0  0.23556567209774093  0.41270769483454345  0.2004439853934436  1.0000
  O   O2        1.0  0.23648136213287277  0.4025889837390382  0.619415033144876  1.0000
  O   O3        1.0  0.23600315831200702  0.596440430887869  0.4021688989966361  1.0000
  O   O4        1.0  0.23604380349293907  0.21885625602657144  0.41769001150233165  1.0000
  O   O5        1.0  0.07543348774179948  0.5964425868328105  0.4021729356473025  1.0000
  O   O6        1.0  0.07591169137535594  0.4025926997392899  0.619418992158624  1.0000
  O   O7        1.0  0.07499599763218838  0.4127113502820501  0.20044621207297636  1.0000
  O   O8        1.0  0.0754741292587944  0.21885990313583448  0.41769234621528106  1.0000
