data_image0
_chemical_formula_structural       NC5NC3BrH3C9H10C6NCOH5Zn2C4O8
_chemical_formula_sum              "N3 C28 Br1 H18 O9 Zn2"
_cell_length_a       13.839083392302014
_cell_length_b       10.297183801781404
_cell_length_c       9.27373355559583
_cell_angle_alpha    86.14735742997276
_cell_angle_beta     90.01178760078571
_cell_angle_gamma    90.02359494799444

_space_group_name_H-M_alt    "P 1"
_space_group_IT_number       1

loop_
  _space_group_symop_operation_xyz
  'x, y, z'

loop_
  _atom_site_type_symbol
  _atom_site_label
  _atom_site_symmetry_multiplicity
  _atom_site_fract_x
  _atom_site_fract_y
  _atom_site_fract_z
  _atom_site_occupancy
  N   N1        1.0  0.9096499014010668  0.4068585929517161  0.4095251855912305  1.0000
  C   C1        1.0  0.8376493144720172  0.3495489383801407  0.4120182333715605  1.0000
  C   C2        1.0  0.7479424529619169  0.2782359118008271  0.4151202890968373  1.0000
  C   C3        1.0  0.6603835590687964  0.34685452892933455  0.41213563213426374  1.0000
  C   C4        1.0  0.5723392370045081  0.27956210810923854  0.41506254444347634  1.0000
  C   C5        1.0  0.4825778476008269  0.3502981717764002  0.41198562546740125  1.0000
  N   N2        1.0  0.410421338192778  0.40716441960825844  0.409511826809017  1.0000
  C   C6        1.0  0.5717879857119602  0.14337056017565786  0.420986362873089  1.0000
  C   C7        1.0  0.6589018375523601  0.0746427397904379  0.42397567842042627  1.0000
  C   C8        1.0  0.7471422099554332  0.14129208689787554  0.4210767575706307  1.0000
  Br  Br1       1.0  0.8645485629491619  0.04215495522028866  0.42538893750433804  1.0000
  H   H1        1.0  0.6607556416774854  0.4523914502646833  0.4075449748188116  1.0000
  H   H2        1.0  0.5040953397237808  0.09037338127686302  0.42329127242050735  1.0000
  H   H3        1.0  0.6577665500507403  0.969330226907765  0.42855619735552763  1.0000
  C   C9        1.0  0.1600436515757162  0.02553791345557799  0.40972273032001816  1.0000
  C   C10       1.0  0.15720695508633975  0.03392952730172616  0.25806324078997855  1.0000
  C   C11       1.0  0.15575340901565204  0.9216123089430388  0.18036364931692428  1.0000
  C   C12       1.0  0.15719555834736454  0.7987527430424973  0.2574754310761074  1.0000
  C   C13       1.0  0.16003685066048567  0.788475206496548  0.40932674767153676  1.0000
  C   C14       1.0  0.16144143261439337  0.9023343221872725  0.4844591466286488  1.0000
  C   C15       1.0  0.15268505410962763  0.9401206265077524  0.016333202491624066  1.0000
  C   C16       1.0  0.09609442106038601  0.8405932945558178  0.9361059136475557  1.0000
  C   C17       1.0  0.20617845586757297  0.840924455776171  0.9315246026067978  1.0000
  H   H4        1.0  0.16114589687715575  0.34984281506979653  0.468161995895288  1.0000
  H   H5        1.0  0.156112036648133  0.12859151869087837  0.19951431053319424  1.0000
  H   H6        1.0  0.15612870134368384  0.7106019067208807  0.20055239334661823  1.0000
  H   H7        1.0  0.1636295192090842  0.8951325727258425  0.6014676275545618  1.0000
  H   H8        1.0  0.16539041595069737  0.5618473761087753  0.6961311271930035  1.0000
  H   H9        1.0  0.1516997180241908  0.040325733598136175  0.9636109332946444  1.0000
  H   H10       1.0  0.06385894624255184  0.7575703751122377  0.0016947672114686612  1.0000
  H   H11       1.0  0.061991312521412656  0.880459343572048  0.8341382281097616  1.0000
  H   H12       1.0  0.2408131207587636  0.7581035059801735  0.9943313080989786  1.0000
  H   H13       1.0  0.23641462091460408  0.8809816737645264  0.8268780126155257  1.0000
  C   C18       1.0  0.15998498755625445  0.4029136940699245  0.9862998744893683  1.0000
  C   C19       1.0  0.07117413576955567  0.3954034297066753  0.06025757534781251  1.0000
  C   C20       1.0  0.9832419473909282  0.39842113713336524  0.9853088417175152  1.0000
  C   C21       1.0  0.9840948166660163  0.4131716930271008  0.833953428969247  1.0000
  C   C22       1.0  0.07145273993434831  0.4187426318766661  0.7587927803581755  1.0000
  C   C23       1.0  0.16009549420922653  0.4110994046351073  0.8327496557752632  1.0000
  N   N3        1.0  0.8941446834616543  0.39381053752283846  0.06532806855010809  1.0000
  C   C24       1.0  0.8070893128429932  0.3339375243023279  0.01857901400056727  1.0000
  O   O1        1.0  0.8065818142542382  0.2651907493091372  0.9112638748820769  1.0000
  H   H14       1.0  0.38768613920677075  0.49325469814830797  0.0825604340583852  1.0000
  H   H15       1.0  0.9173607495819609  0.42178006066714024  0.7733361073345941  1.0000
  H   H16       1.0  0.3142180573115132  0.46645547517601577  0.5476106256267186  1.0000
  H   H17       1.0  0.8937983197375935  0.4283507491718384  0.16872914978966813  1.0000
  H   H18       1.0  0.7410447829838851  0.3447916824053858  0.07899596199000936  1.0000
  Zn  Zn1       1.0  0.05416172487122961  0.406943445569177  0.4095296615337214  1.0000
  Zn  Zn2       1.0  0.26590950850296324  0.40706903388002696  0.4095191840219632  1.0000
  C   C25       1.0  0.16007249815864766  0.4043770436656678  0.6727551896015418  1.0000
  C   C26       1.0  0.16000104749857935  0.40963707759247336  0.1462937964452129  1.0000
  C   C27       1.0  0.16003239902591956  0.6442082717482067  0.4036584643106096  1.0000
  C   C28       1.0  0.1600410744005678  0.16980428947911788  0.41539059938741785  1.0000
  O   O2        1.0  0.2403636177679711  0.4119354993337556  0.19998524499625492  1.0000
  O   O3        1.0  0.24042159611013528  0.4021729565427466  0.6190553744937604  1.0000
  O   O4        1.0  0.24038813249575886  0.5958397201490956  0.4017578642699504  1.0000
  O   O5        1.0  0.24039700911298167  0.2182687439322966  0.41728264715709407  1.0000
  O   O6        1.0  0.07967415200208407  0.5957437354753914  0.4017661983945844  1.0000
  O   O7        1.0  0.07970761558807295  0.40207853185834247  0.6190636309631155  1.0000
  O   O8        1.0  0.0796496370843538  0.4118410126239922  0.19999176872171565  1.0000
  O   O9        1.0  0.07968302843960307  0.21817424897612672  0.4172892789415199  1.0000
