data_image0
_chemical_formula_structural       NC9NC3SH6C7NC2NH6C6NO2H3Zn2C4O8
_chemical_formula_sum              "N5 C31 S1 H15 O10 Zn2"
_cell_length_a       16.77567553997237
_cell_length_b       9.273995741505848
_cell_length_c       9.273395971720356
_cell_angle_alpha    85.10796789348095
_cell_angle_beta     90.29524247886945
_cell_angle_gamma    91.47570659476311

_space_group_name_H-M_alt    "P 1"
_space_group_IT_number       1

loop_
  _space_group_symop_operation_xyz
  'x, y, z'

loop_
  _atom_site_type_symbol
  _atom_site_label
  _atom_site_symmetry_multiplicity
  _atom_site_fract_x
  _atom_site_fract_y
  _atom_site_fract_z
  _atom_site_occupancy
  N   N1        1.0  0.761488099729707  0.6156686520809698  0.41960136526540825  1.0000
  C   C1        1.0  0.7069969452465216  0.6699705693991389  0.4659914856420637  1.0000
  C   C2        1.0  0.639372606663014  0.7373556635754703  0.5235580772423885  1.0000
  C   C3        1.0  0.6419421579708423  0.8340877977561463  0.6294844238763054  1.0000
  C   C4        1.0  0.5665385313984874  0.8820043984867175  0.6646433490014652  1.0000
  C   C5        1.0  0.5042833784325224  0.822798343287745  0.5859863942806105  1.0000
  C   C6        1.0  0.4179426910830035  0.8516202537654375  0.5981266900857021  1.0000
  C   C7        1.0  0.3606990378090421  0.763904213028042  0.533096369346733  1.0000
  C   C8        1.0  0.2791967516494217  0.7905055363417822  0.5440561009471463  1.0000
  C   C9        1.0  0.22127062244902376  0.6998419070908177  0.477466721394717  1.0000
  N   N2        1.0  0.1747151009765183  0.6269613384930868  0.42393869772708725  1.0000
  C   C10       1.0  0.2541104566183804  0.9051729817325647  0.6198679937860403  1.0000
  C   C11       1.0  0.3102640246250128  0.9930707313638449  0.6843856764309922  1.0000
  C   C12       1.0  0.3916105689887803  0.9668694245149548  0.6737545072156854  1.0000
  S   S1        1.0  0.5443530862369707  0.7105897310513316  0.4732860331105804  1.0000
  H   H1        1.0  0.696488292320838  0.8689432203537022  0.6804563466437291  1.0000
  H   H2        1.0  0.5586083464160956  0.9565646804403638  0.7465316134860963  1.0000
  H   H3        1.0  0.3790513945727745  0.6742211813756529  0.4745504130734335  1.0000
  H   H4        1.0  0.19123828232628898  0.9266904776186667  0.6289170561655472  1.0000
  H   H5        1.0  0.29072757529885473  0.08207827007714118  0.7425768888090791  1.0000
  H   H6        1.0  0.43340087144076506  0.038141641379594304  0.723702670849705  1.0000
  C   C13       1.0  0.9657219588153709  0.19777199742790147  0.4206905122638134  1.0000
  C   C14       1.0  0.9798705518230525  0.2827573454434439  0.2902880741875438  1.0000
  C   C15       1.0  0.0011477359598424126  0.21953033865877059  0.16537508169915466  1.0000
  C   C16       1.0  0.009162009125289973  0.0692840752283812  0.1672993832198688  1.0000
  C   C17       1.0  0.9933404463299952  0.9829878918179392  0.29648839182357484  1.0000
  C   C18       1.0  0.9704887962703996  0.04484694609050963  0.4228620927403247  1.0000
  C   C19       1.0  0.03268578656991883  0.004329586218438926  0.03339779105951802  1.0000
  N   N3        1.0  0.035739867139209514  0.08006657093923074  0.9022546577129896  1.0000
  C   C20       1.0  0.05976012420548083  0.9837830347616593  0.8117152029319379  1.0000
  C   C21       1.0  0.07105005002171283  0.8523773318328765  0.8884695781096217  1.0000
  N   N4        1.0  0.05405730913610518  0.8654551336405121  0.027868659162737286  1.0000
  H   H7        1.0  0.9008231311651844  0.4584318835883417  0.6277723143153917  1.0000
  H   H8        1.0  0.012513015692803497  0.2890643014009011  0.06742896416063227  1.0000
  H   H9        1.0  0.9712584861058754  0.7443318648694415  0.6629336887208054  1.0000
  H   H10       1.0  0.06871303510488701  0.008250484105506883  0.6967144098746307  1.0000
  H   H11       1.0  0.09068195563383408  0.7542489560983417  0.8458811629921704  1.0000
  H   H12       1.0  0.058294607899180166  0.7841495527594113  0.11229606352078414  1.0000
  C   C22       1.0  0.9685840599817437  0.6257527325649928  0.9978557252240515  1.0000
  C   C23       1.0  0.8977025762436719  0.6567308397495477  0.06778087940120026  1.0000
  C   C24       1.0  0.8265211610913533  0.6740650548250671  0.9906526057709817  1.0000
  C   C25       1.0  0.8242009286594666  0.6607531917018683  0.8413004270002165  1.0000
  C   C26       1.0  0.8950537103482844  0.6322452824354574  0.7699434833281309  1.0000
  C   C27       1.0  0.9676266726110093  0.6168662582235784  0.8456969304975189  1.0000
  N   N5        1.0  0.7503894447337733  0.677534950580562  0.7624352589443055  1.0000
  O   O1        1.0  0.6812711320757873  0.70663781152369  0.8325619957237409  1.0000
  O   O2        1.0  0.7477832283711835  0.6655793787588125  0.6293825912782718  1.0000
  H   H13       1.0  0.14214932505831257  0.4689413765342016  0.11569479168350516  1.0000
  H   H14       1.0  0.7729940727367481  0.6965144849336347  0.04853364881117008  1.0000
  H   H15       1.0  0.0859987667994857  0.515549610363337  0.5752282347190447  1.0000
  Zn  Zn1       1.0  0.8807364578756761  0.6189235391872461  0.4208613610909649  1.0000
  Zn  Zn2       1.0  0.05546665826719521  0.6236945611896689  0.42269052682502295  1.0000
  C   C28       1.0  0.9677735424813185  0.6128001315454341  0.6854220209452564  1.0000
  C   C29       1.0  0.968431491790831  0.6298198392740655  0.15813003329924613  1.0000
  C   C30       1.0  0.9695901530321793  0.8847919743966951  0.4166990004007103  1.0000
  C   C31       1.0  0.9666148117784035  0.3578262611376348  0.4268531257412027  1.0000
  O   O3        1.0  0.034689453537419146  0.6329890831305576  0.21261369794518561  1.0000
  O   O4        1.0  0.03413175419651426  0.613250899284169  0.6323262324196874  1.0000
  O   O5        1.0  0.03559779461581326  0.8328877120524878  0.41533048655696386  1.0000
  O   O6        1.0  0.0332233536748221  0.4133522801862927  0.42960933497083104  1.0000
  O   O7        1.0  0.9029797028412248  0.8292658185641559  0.4139425523133631  1.0000
  O   O8        1.0  0.9015136722566679  0.6096307394545415  0.6309382256468821  1.0000
  O   O9        1.0  0.9020713733275909  0.6293688912332209  0.21122395542831574  1.0000
  O   O10       1.0  0.9006052732814674  0.4097320768384365  0.4282197006592454  1.0000
