data_image0
_chemical_formula_structural       NC9NC3OH6C9H9C7OCH10Zn2C4O8
_chemical_formula_sum              "N2 C33 O10 H25 Zn2"
_cell_length_a       15.78231758774541
_cell_length_b       9.272676604525723
_cell_length_c       10.300835455316063
_cell_angle_alpha    85.82006583043875
_cell_angle_beta     90.10164199731037
_cell_angle_gamma    90.18380166211226

_space_group_name_H-M_alt    "P 1"
_space_group_IT_number       1

loop_
  _space_group_symop_operation_xyz
  'x, y, z'

loop_
  _atom_site_type_symbol
  _atom_site_label
  _atom_site_symmetry_multiplicity
  _atom_site_fract_x
  _atom_site_fract_y
  _atom_site_fract_z
  _atom_site_occupancy
  N   N1        1.0  0.8064656384948213  0.5689873549515798  0.576307316596034  1.0000
  C   C1        1.0  0.7574228030509675  0.4778707421808732  0.6000239498272786  1.0000
  C   C2        1.0  0.6965344512360269  0.36477287790462665  0.6294624068320303  1.0000
  C   C3        1.0  0.7154005868301188  0.2227037198053472  0.6663624539910995  1.0000
  C   C4        1.0  0.6382840304772606  0.15385145857729343  0.6843202022051622  1.0000
  C   C5        1.0  0.5770928516460919  0.2589989031123008  0.6570512187064219  1.0000
  C   C6        1.0  0.483892904407227  0.23955876514827001  0.6621845905865322  1.0000
  C   C7        1.0  0.43081601136526093  0.35875654140509616  0.63110677072057  1.0000
  C   C8        1.0  0.34252017772849414  0.3428160957060573  0.6353231723059498  1.0000
  C   C9        1.0  0.28876622748502573  0.46548199152424113  0.603332881854949  1.0000
  N   N2        1.0  0.24556085727154123  0.5640895454637824  0.5776155282769502  1.0000
  C   C10       1.0  0.30661895579162957  0.20750046496960484  0.6706656803437359  1.0000
  C   C11       1.0  0.3587662987551701  0.08854912759551548  0.7016836041868857  1.0000
  C   C12       1.0  0.4468740153519798  0.10405166343933625  0.6975817621965419  1.0000
  O   O1        1.0  0.6142498574276444  0.38361227409314264  0.6246364830099729  1.0000
  H   H1        1.0  0.7775923910024519  0.17479289333791992  0.6787556309772682  1.0000
  H   H2        1.0  0.6289172163099669  0.040640259831047576  0.7137401041700286  1.0000
  H   H3        1.0  0.45801176453386816  0.4640560946489973  0.6035993117816043  1.0000
  H   H4        1.0  0.2384269914906226  0.19399973542626878  0.6742346310866689  1.0000
  H   H5        1.0  0.3308442654654488  0.983969456826341  0.7290034313980105  1.0000
  H   H6        1.0  0.48543227676415635  0.009833828860273062  0.7221583910318023  1.0000
  C   C13       1.0  0.02361628644534463  0.1430762438268891  0.5752955087203766  1.0000
  C   C14       1.0  0.9897183217837315  0.20758868492474236  0.6827336368232799  1.0000
  C   C15       1.0  0.963572897778944  0.12377967979683159  0.7933683517814303  1.0000
  C   C16       1.0  0.9704817521498535  0.9729555981311758  0.8002878361020889  1.0000
  C   C17       1.0  0.0029913659806839457  0.9070086485746843  0.6918451485167116  1.0000
  C   C18       1.0  0.028418261589982827  0.9899894772972821  0.57863854379129  1.0000
  C   C19       1.0  0.9413092464527905  0.8897060670265419  0.9249349888970824  1.0000
  C   C20       1.0  0.898485361042422  0.7440850314089257  0.9118789049184938  1.0000
  C   C21       1.0  0.9879604680865522  0.7505485879270827  0.9670875225070061  1.0000
  H   H7        1.0  0.04239635460761068  0.4416221273974732  0.3625725016160697  1.0000
  H   H8        1.0  0.9852476410166932  0.3241610377394471  0.6825954919292516  1.0000
  H   H9        1.0  0.9384862654347902  0.17753304527935532  0.8748801678031473  1.0000
  H   H10       1.0  0.05035126996029194  0.9128238168959657  0.26076275916275904  1.0000
  H   H11       1.0  0.9173380850112752  0.9501235088654845  0.006619202910751688  1.0000
  H   H12       1.0  0.8945370682906085  0.7048459629903125  0.8128778857856529  1.0000
  H   H13       1.0  0.8493937014498965  0.7158752171164906  0.986643349521897  1.0000
  H   H14       1.0  0.03833772536472388  0.7151076195481194  0.9016993828596624  1.0000
  H   H15       1.0  0.9911605268788439  0.7261103856700425  0.07413589498291795  1.0000
  C   C22       1.0  0.025939856215067  0.5664601529485831  0.19564995927586604  1.0000
  C   C23       1.0  0.10412488061948233  0.6393684644635111  0.19023648822937522  1.0000
  C   C24       1.0  0.14302083238433627  0.6776221489691621  0.07029122322929582  1.0000
  C   C25       1.0  0.10432832545496429  0.639557830656543  0.9549390625543128  1.0000
  C   C26       1.0  0.02609467928570862  0.5666055652467292  0.958284102684403  1.0000
  C   C27       1.0  0.9872671426139569  0.5307956629512203  0.07907507218601895  1.0000
  C   C28       1.0  0.22783519537091002  0.7518428157436035  0.06587406645300997  1.0000
  O   O2        1.0  0.2919894097804663  0.6458659543358036  0.0731595764174251  1.0000
  C   C29       1.0  0.37196735285319815  0.714190509779461  0.06912999296905076  1.0000
  H   H16       1.0  0.9964591805276528  0.537036760012852  0.5252215855715103  1.0000
  H   H17       1.0  0.13509806336962416  0.6666750859745727  0.27917594909232113  1.0000
  H   H18       1.0  0.13544105367743878  0.6669957675139662  0.8627046316136306  1.0000
  H   H19       1.0  0.9269714721877547  0.4745546505444298  0.08248780897243035  1.0000
  H   H20       1.0  0.8789749868282172  0.4275445821555479  0.7574400239587864  1.0000
  H   H21       1.0  0.23271794879344598  0.8221796445467551  0.14884789647439223  1.0000
  H   H22       1.0  0.23291438834606304  0.8221994498056451  0.9737345202588211  1.0000
  H   H23       1.0  0.42168438183097523  0.6296623668708632  0.0749256357400323  1.0000
  H   H24       1.0  0.38091767052691883  0.7810526634593717  0.15356271538044886  1.0000
  H   H25       1.0  0.3811248897679478  0.7811105058894603  0.9760525531082012  1.0000
  Zn  Zn1       1.0  0.9331790096909709  0.5675701024986815  0.5766923154713852  1.0000
  Zn  Zn2       1.0  0.11884739300581604  0.5654950305634188  0.5772410978199471  1.0000
  C   C30       1.0  0.02603093754493967  0.5608333961387906  0.814107217496727  1.0000
  C   C31       1.0  0.02599750298703496  0.5722335337686415  0.33982633641844484  1.0000
  C   C32       1.0  0.02750515120974684  0.8299039225410678  0.5728321455633338  1.0000
  C   C33       1.0  0.02452321615735852  0.30316127556806616  0.5811014705550206  1.0000
  O   O3        1.0  0.09647699794927961  0.5733773630346919  0.3884214808634179  1.0000
  O   O4        1.0  0.09646944320074356  0.5581135473579972  0.7659282080670489  1.0000
  O   O5        1.0  0.09765893981614693  0.7753914111621496  0.5710968835307642  1.0000
  O   O6        1.0  0.09528743801655937  0.3560995102356763  0.5832527078917309  1.0000
  O   O7        1.0  0.9567389013207277  0.776965623536112  0.570680705205505  1.0000
  O   O8        1.0  0.9555494145106938  0.5596894922399465  0.7655119673445112  1.0000
  O   O9        1.0  0.9555569687137557  0.5749532573672486  0.3880036787543111  1.0000
  O   O10       1.0  0.9543674087388524  0.35767539427278505  0.5828350030964997  1.0000
