data_image0
_chemical_formula_structural       NC9NC3SH6C7ONH7C6NO2H3Zn2C4O8
_chemical_formula_sum              "N4 C29 S1 H16 O11 Zn2"
_cell_length_a       16.77567553997237
_cell_length_b       10.297852080636378
_cell_length_c       9.273395971720355
_cell_angle_alpha    84.96325203877277
_cell_angle_beta     90.29524247886945
_cell_angle_gamma    90.87229915396684

_space_group_name_H-M_alt    "P 1"
_space_group_IT_number       1

loop_
  _space_group_symop_operation_xyz
  'x, y, z'

loop_
  _atom_site_type_symbol
  _atom_site_label
  _atom_site_symmetry_multiplicity
  _atom_site_fract_x
  _atom_site_fract_y
  _atom_site_fract_z
  _atom_site_occupancy
  N   N1        1.0  0.7520718909278143  0.4550414545461985  0.41544690947439694  1.0000
  C   C1        1.0  0.6972642617818616  0.5039447619523983  0.4616974004074934  1.0000
  C   C2        1.0  0.6292471990366998  0.5646305376643779  0.5190907210872195  1.0000
  C   C3        1.0  0.6312529899644993  0.6517457175240138  0.6247683351765603  1.0000
  C   C4        1.0  0.5555701027176397  0.694898526321857  0.6598040497664819  1.0000
  C   C5        1.0  0.4936600060089536  0.641578642592171  0.5812993347629525  1.0000
  C   C6        1.0  0.40715134292581023  0.6675351247522028  0.5933655192378913  1.0000
  C   C7        1.0  0.3504189037264642  0.588539672722366  0.5285607474770102  1.0000
  C   C8        1.0  0.2687615835415154  0.6124963349485134  0.5394520776625993  1.0000
  C   C9        1.0  0.2113638471292458  0.5308463389484979  0.4730958263812984  1.0000
  N   N2        1.0  0.1652330777558994  0.4652114401070728  0.4197552044435182  1.0000
  C   C10       1.0  0.24300700011657086  0.7157637260163565  0.6149691199255847  1.0000
  C   C11       1.0  0.29864829503881885  0.794922821731996  0.6792607863545859  1.0000
  C   C12       1.0  0.38014754210920493  0.7713264069724985  0.6686969899702315  1.0000
  S   S1        1.0  0.5343836719878257  0.5405256314126863  0.4688875016387604  1.0000
  H   H1        1.0  0.6855959849290559  0.6831358696630977  0.6756506323192792  1.0000
  H   H2        1.0  0.5472053761711102  0.7620461440994725  0.7415005933838774  1.0000
  H   H3        1.0  0.3692939382997449  0.5077727848734673  0.47024539801143944  1.0000
  H   H4        1.0  0.1800094206345622  0.7351419868200058  0.6239628532094401  1.0000
  H   H5        1.0  0.2785931047143826  0.8750813730711975  0.7372231288563065  1.0000
  H   H6        1.0  0.4215224660274124  0.8355128538419654  0.7184618875158049  1.0000
  C   C13       1.0  0.9587412754863266  0.0786914180128924  0.4176106166400315  1.0000
  C   C14       1.0  0.9479916455858056  0.08938420119553214  0.2666871911545232  1.0000
  C   C15       1.0  0.9418366653135571  0.9776947220472347  0.19027246663413844  1.0000
  C   C16       1.0  0.9477901531556704  0.8541275011333889  0.2666352873891049  1.0000
  C   C17       1.0  0.9585712807488881  0.8415515756527154  0.4176040440407136  1.0000
  C   C18       1.0  0.9637875993146894  0.9543554283259504  0.49213751138919154  1.0000
  C   C19       1.0  0.9306806599393864  0.9915941458414032  0.030849791016734237  1.0000
  O   O1        1.0  0.9520565004226165  0.09590201920184628  0.9591839676339154  1.0000
  N   N3        1.0  0.8951428396628499  0.8896117453969157  0.95594507790114  1.0000
  H   H7        1.0  0.9793468792184552  0.2657633405344242  0.702782393705387  1.0000
  H   H8        1.0  0.9436863554217841  0.18495307592604715  0.208450214859226  1.0000
  H   H9        1.0  0.9455969114884452  0.7674187901354926  0.2087123872372716  1.0000
  H   H10       1.0  0.9720704839939516  0.9453607693584183  0.608456049932331  1.0000
  H   H11       1.0  0.9802251844697051  0.6105613823285015  0.7026552043991667  1.0000
  H   H12       1.0  0.8912467173474236  0.8996492643599274  0.8431103571242744  1.0000
  H   H13       1.0  0.8678578582611536  0.8082817630056748  0.011131447353542658  1.0000
  C   C20       1.0  0.9591090805852183  0.4641229918504812  0.9936753396939757  1.0000
  C   C21       1.0  0.8880470546764718  0.49202130508373465  0.06352083819629151  1.0000
  C   C22       1.0  0.816764614732741  0.5076321801752419  0.9863479921655931  1.0000
  C   C23       1.0  0.814521964596301  0.4956437612277363  0.8370300429051736  1.0000
  C   C24       1.0  0.8855408920018242  0.469970062779949  0.7657464031550205  1.0000
  C   C25       1.0  0.9582034840923987  0.45611999659841346  0.8415393952373549  1.0000
  N   N4        1.0  0.7406126756253337  0.5107571044353596  0.7581217230091456  1.0000
  O   O2        1.0  0.6713247498384305  0.5369666054141666  0.8281736260353703  1.0000
  O   O3        1.0  0.7380761370153417  0.49999013647380086  0.625099797348613  1.0000
  H   H14       1.0  0.13358825116400252  0.3229015704442255  0.11191762363575064  1.0000
  H   H15       1.0  0.7631066898225626  0.5278497237890463  0.044171309777488725  1.0000
  H   H16       1.0  0.07716605746739091  0.36487608808880956  0.5713312204103072  1.0000
  Zn  Zn1       1.0  0.8713012794065934  0.45797274597368265  0.41669853583349714  1.0000
  Zn  Zn2       1.0  0.04600367401051142  0.4622694405868608  0.4185154335818142  1.0000
  C   C26       1.0  0.9583740515802655  0.45245811774193134  0.6812749411355361  1.0000
  C   C27       1.0  0.958932809065072  0.4677857533047818  0.15393918979871946  1.0000
  C   C28       1.0  0.9586054782003736  0.6974089658859886  0.41185253332170935  1.0000
  C   C29       1.0  0.9587013230967377  0.22283334239483524  0.4233616739719892  1.0000
  O   O4        1.0  0.025172300278200947  0.470639915997623  0.2084147051973022  1.0000
  O   O5        1.0  0.024729636195440777  0.4528640708718548  0.6281779935266116  1.0000
  O   O6        1.0  0.024915620777210767  0.6506649424247486  0.4106174837021999  1.0000
  O   O7        1.0  0.0249862561958778  0.2728390532920906  0.42597510615937506  1.0000
  O   O8        1.0  0.8923186376038819  0.6474031318036872  0.40923886262832476  1.0000
  O   O9        1.0  0.8921326527529921  0.4496038215519172  0.626799295465682  1.0000
  O   O10       1.0  0.8925753187526634  0.46737963779809655  0.20703427147476527  1.0000
  O   O11       1.0  0.8923892745535478  0.2695787647804373  0.42459478067156575  1.0000
