data_image0
_chemical_formula_structural       NC9NC3SH6C7F3H5C6OCH7Zn2C4O8
_chemical_formula_sum              "N2 C30 S1 H18 F3 O9 Zn2"
_cell_length_a       16.77567553997237
_cell_length_b       9.272718291674593
_cell_length_c       9.273891588657152
_cell_angle_alpha    86.50478335773057
_cell_angle_beta     90.06962488754225
_cell_angle_gamma    90.46558260785916

_space_group_name_H-M_alt    "P 1"
_space_group_IT_number       1

loop_
  _space_group_symop_operation_xyz
  'x, y, z'

loop_
  _atom_site_type_symbol
  _atom_site_label
  _atom_site_symmetry_multiplicity
  _atom_site_fract_x
  _atom_site_fract_y
  _atom_site_fract_z
  _atom_site_occupancy
  N   N1        1.0  0.7490486022254595  0.584246251311073  0.4298338505569905  1.0000
  C   C1        1.0  0.6939313391087638  0.6394223511355752  0.4764250193178367  1.0000
  C   C2        1.0  0.6255300420628844  0.7078922386784194  0.5342410993851998  1.0000
  C   C3        1.0  0.6269355737615936  0.8066333739382625  0.6404921542321591  1.0000
  C   C4        1.0  0.5509915375588288  0.8552093129976834  0.6758367795110534  1.0000
  C   C5        1.0  0.48947773518075915  0.7945054706342638  0.5970009295229368  1.0000
  C   C6        1.0  0.4028308218652548  0.82354923564926  0.6092658567734042  1.0000
  C   C7        1.0  0.3465778388986522  0.7346132443396266  0.5438965533758497  1.0000
  C   C8        1.0  0.2647934326144605  0.7614145726129116  0.554971666230429  1.0000
  C   C9        1.0  0.2078899548607245  0.6695021452678878  0.4880310138914096  1.0000
  N   N2        1.0  0.1621564980152531  0.5956177276837108  0.43422061680319296  1.0000
  C   C10       1.0  0.238431308341629  0.8774983517347943  0.6312399042909055  1.0000
  C   C11       1.0  0.2935935071250698  0.9666060214992805  0.6960982012158421  1.0000
  C   C12       1.0  0.3752175869039274  0.9402108938693877  0.6853531506848518  1.0000
  S   S1        1.0  0.5308764296961238  0.6801637806947104  0.48390930306606883  1.0000
  H   H1        1.0  0.6810355113933577  0.8424610678072549  0.6915626969075951  1.0000
  H   H2        1.0  0.5421636322918214  0.9313227936031845  0.7579749800052606  1.0000
  H   H3        1.0  0.365926476883019  0.6438369802845632  0.48499260972608216  1.0000
  H   H4        1.0  0.1753305460393959  0.8991811959677347  0.6403820332287858  1.0000
  H   H5        1.0  0.27306810031657464  0.05670023100685207  0.7546445808162245  1.0000
  H   H6        1.0  0.4162089806546815  0.01241827756814474  0.7355808998662899  1.0000
  C   C13       1.0  0.9573522491491466  0.16656861836932005  0.42886165045049285  1.0000
  C   C14       1.0  0.90907393061745  0.24564924906906427  0.32873284396413904  1.0000
  C   C15       1.0  0.8551199116105244  0.17583243878198251  0.23991729102760348  1.0000
  C   C16       1.0  0.8515659631256762  0.02452233290615946  0.24830679519715645  1.0000
  C   C17       1.0  0.8999136073571531  0.9444562689756052  0.3453171853837928  1.0000
  C   C18       1.0  0.9538604710680172  0.01328460799386333  0.43520536136778065  1.0000
  C   C19       1.0  0.8054203224167369  0.2623881433372621  0.1306030705221921  1.0000
  F   F1        1.0  0.7847743731630601  0.3937139652751598  0.18277077348042514  1.0000
  F   F2        1.0  0.735932796763014  0.18880194068405162  0.0997495002206128  1.0000
  F   F3        1.0  0.8488152206007625  0.2872201849944327  0.00479886050708211  1.0000
  H   H7        1.0  0.0510275490330343  0.2506604246956152  0.7409402664613716  1.0000
  H   H8        1.0  0.9122766363054752  0.3626454205140599  0.3220579246589845  1.0000
  H   H9        1.0  0.8119393462654741  0.9677105619732435  0.1785697698272788  1.0000
  H   H10       1.0  0.8966541839520511  0.8276150395227408  0.34722196739975153  1.0000
  H   H11       1.0  0.12443877319066776  0.9036390929344382  0.6105080018759594  1.0000
  C   C20       1.0  0.9569279772888023  0.5861443392000966  0.008743411531154656  1.0000
  C   C21       1.0  0.021956253966679773  0.6488350334120363  0.07846653765541545  1.0000
  C   C22       1.0  0.0824186169157197  0.722166687082719  0.9998388590275011  1.0000
  C   C23       1.0  0.07806847676071227  0.7331748798661639  0.84843590108856  1.0000
  C   C24       1.0  0.014718485935834247  0.6696573404928043  0.7773818204751088  1.0000
  C   C25       1.0  0.9542847392841761  0.5937088407187865  0.8553235304441338  1.0000
  O   O1        1.0  0.14527729404718315  0.7830224052557246  0.07615847724494751  1.0000
  C   C26       1.0  0.21060581273987786  0.860702745448182  0.010347605263233856  1.0000
  H   H12       1.0  0.7676901020764658  0.49237733438718784  0.117083839658493  1.0000
  H   H13       1.0  0.12376014545974856  0.7894911301412189  0.7844138339537379  1.0000
  H   H14       1.0  0.014044657261453652  0.6770699167118512  0.6603494825503813  1.0000
  H   H15       1.0  0.8281140920558785  0.5248976509876495  0.5780487465311168  1.0000
  H   H16       1.0  0.18880618415219907  0.9576742915255264  0.9464557395668995  1.0000
  H   H17       1.0  0.24413776115928476  0.7900666746152689  0.9397518158967454  1.0000
  H   H18       1.0  0.25126791753406574  0.8962861280096001  0.09588263049134094  1.0000
  Zn  Zn1       1.0  0.8682626100590594  0.5875240390562928  0.4311080805265082  1.0000
  Zn  Zn2       1.0  0.04294249675817663  0.5923282847572665  0.43295813617425605  1.0000
  C   C27       1.0  0.954806287747236  0.5865356013793843  0.6952587306297713  1.0000
  C   C28       1.0  0.956400718625612  0.5933185952175337  0.16880766137999093  1.0000
  C   C29       1.0  0.9545343340320894  0.8531858295210433  0.4282621426570065  1.0000
  C   C30       1.0  0.9566726196378378  0.32666663400714446  0.43580431259384483  1.0000
  O   O2        1.0  0.022513898389847187  0.5975432376533043  0.22322872518851722  1.0000
  O   O3        1.0  0.021271105950888103  0.5859561789551819  0.6422413931618309  1.0000
  O   O4        1.0  0.021050601584577274  0.8012795992471273  0.42663976109507695  1.0000
  O   O5        1.0  0.022734343444660517  0.3822198250694885  0.4388302486228716  1.0000
  O   O6        1.0  0.88847070376292  0.7976324971061197  0.4252359674389887  1.0000
  O   O7        1.0  0.888691201222497  0.5823108082449531  0.6408375356257504  1.0000
  O   O8        1.0  0.8899339993325905  0.5938978012197846  0.22182313424230782  1.0000
  O   O9        1.0  0.8901544440892459  0.37857437928988746  0.43742476567015837  1.0000
