data_image0
_chemical_formula_structural       NC9NC3OH6C6NH7C6NCH7Zn2C4O8
_chemical_formula_sum              "N4 C29 O9 H20 Zn2"
_cell_length_a       15.78231758774541
_cell_length_b       9.274771166103584
_cell_length_c       9.273390368590327
_cell_angle_alpha    86.06293122453995
_cell_angle_beta     90.0787864382203
_cell_angle_gamma    90.23039320205511

_space_group_name_H-M_alt    "P 1"
_space_group_IT_number       1

loop_
  _space_group_symop_operation_xyz
  'x, y, z'

loop_
  _atom_site_type_symbol
  _atom_site_label
  _atom_site_symmetry_multiplicity
  _atom_site_fract_x
  _atom_site_fract_y
  _atom_site_fract_z
  _atom_site_occupancy
  N   N1        1.0  0.8075415160256088  0.5527521513407665  0.4100616256189835  1.0000
  C   C1        1.0  0.7584499756396502  0.4618940603512673  0.43695060338445657  1.0000
  C   C2        1.0  0.6975011690709401  0.34911708851066775  0.47032674957649445  1.0000
  C   C3        1.0  0.7162913822945405  0.2074501015190564  0.5121644401356509  1.0000
  C   C4        1.0  0.6391380135810085  0.13879361327486817  0.5325233583408973  1.0000
  C   C5        1.0  0.5780030163541955  0.24364388419499727  0.5016044911710342  1.0000
  C   C6        1.0  0.48479266056769166  0.2242597539831703  0.5074227577642112  1.0000
  C   C7        1.0  0.43177949495151446  0.34311873160256967  0.4721891968633327  1.0000
  C   C8        1.0  0.3434751248831814  0.32722429401325054  0.4769679828023064  1.0000
  C   C9        1.0  0.28978675817357596  0.4495414379769753  0.4407001314221259  1.0000
  N   N2        1.0  0.24663410896053561  0.5478686254794848  0.4115440292100656  1.0000
  C   C10       1.0  0.30750154376517636  0.19229399785707899  0.5170350248129646  1.0000
  C   C11       1.0  0.35958529004019607  0.07368080922527141  0.5522005767481624  1.0000
  C   C12       1.0  0.44770130885609516  0.08913858611635984  0.5475516601969705  1.0000
  O   O1        1.0  0.6152266273967225  0.3679039348589876  0.46485345612256546  1.0000
  H   H1        1.0  0.7784575945933988  0.15967431149636854  0.5262171781802327  1.0000
  H   H2        1.0  0.6297106953055884  0.025903070802190342  0.5658796123890346  1.0000
  H   H3        1.0  0.45903155749588986  0.4481183714262799  0.4410046937640073  1.0000
  H   H4        1.0  0.2393023500458684  0.178832210160508  0.5210800525627857  1.0000
  H   H5        1.0  0.3316073322359124  0.9693990064280742  0.5831723564993687  1.0000
  H   H6        1.0  0.48620919528589834  0.9951886848899598  0.5754144094056455  1.0000
  C   C13       1.0  0.024490635970079597  0.12675108247907607  0.41157963523197294  1.0000
  C   C14       1.0  0.00499758089230218  0.20890682739299105  0.28262719959368954  1.0000
  C   C15       1.0  0.9934151478672991  0.14260776396749697  0.15288374056280896  1.0000
  C   C16       1.0  0.0013702141728861859  0.9927650037546935  0.15115340644267183  1.0000
  C   C17       1.0  0.01929657989693823  0.9092884380549177  0.2783300274941536  1.0000
  C   C18       1.0  0.02969301728116668  0.9738586960234104  0.410038542217223  1.0000
  N   N3        1.0  0.9744426869158022  0.2278421619700033  0.022516523747531988  1.0000
  H   H7        1.0  0.11983451578497667  0.2087033351348924  0.7273267455673708  1.0000
  H   H8        1.0  0.000725577330070729  0.32554116387662635  0.28205914613308636  1.0000
  H   H9        1.0  0.9928597076330159  0.9403118202165619  0.051330258375339666  1.0000
  H   H10       1.0  0.023030597971028355  0.7930390244063944  0.2742149151832629  1.0000
  H   H11       1.0  0.09047685415912737  0.6783971310428859  0.6248445862445061  1.0000
  H   H12       1.0  0.9686051313937071  0.33998048982327456  0.02245000401233254  1.0000
  H   H13       1.0  0.9660118777903427  0.17943049060442817  0.9250638808682438  1.0000
  C   C19       1.0  0.027103467647632478  0.5458065875355769  0.9875716168966661  1.0000
  C   C20       1.0  0.10490297431918555  0.5420752471976736  0.06144203101396072  1.0000
  C   C21       1.0  0.1814275193832786  0.5517671754864677  0.9862661954004994  1.0000
  C   C22       1.0  0.18209762050316158  0.5655595877777401  0.8346150787827739  1.0000
  C   C23       1.0  0.10479959917880532  0.5668527307838538  0.7599412314793774  1.0000
  C   C24       1.0  0.02708019320452769  0.5548031797723714  0.8340465205352454  1.0000
  N   N4        1.0  0.2600643773802166  0.5768963242397218  0.754067573265568  1.0000
  C   C25       1.0  0.3437193550878399  0.5761359376867505  0.8213378816445246  1.0000
  H   H14       1.0  0.8929473853175457  0.4780097101686051  0.2730861789447836  1.0000
  H   H15       1.0  0.23979552060280407  0.5497907093104655  0.0475866952157431  1.0000
  H   H16       1.0  0.8289392348927985  0.4449433047051549  0.7380926875415841  1.0000
  H   H17       1.0  0.25737401992043574  0.5864860164804369  0.6411650681117299  1.0000
  H   H18       1.0  0.34978629693708574  0.6686002047124715  0.8906566498998546  1.0000
  H   H19       1.0  0.35342102733867153  0.47291901358504135  0.8871142835740873  1.0000
  H   H20       1.0  0.3934387883036665  0.5864877181788262  0.7365951065655385  1.0000
  Zn  Zn1       1.0  0.9342541258896229  0.5513391069074964  0.4104977384187671  1.0000
  Zn  Zn2       1.0  0.11992139798341833  0.5492700230552664  0.41111971965743144  1.0000
  C   C26       1.0  0.027047396331875806  0.54735659353996  0.6740550930990478  1.0000
  C   C27       1.0  0.02713016619470919  0.5532543352301855  0.14756250991860728  1.0000
  C   C28       1.0  0.028705443113298246  0.8136763011701249  0.40458647472454556  1.0000
  C   C29       1.0  0.025472045413491115  0.2869328962056217  0.4170312080735128  1.0000
  O   O2        1.0  0.09759884997292634  0.5549623683176574  0.20149296523808657  1.0000
  O   O3        1.0  0.09749586935359454  0.5440770811663302  0.6205962942389408  1.0000
  O   O4        1.0  0.09883381322591828  0.7591336396629107  0.40299847245593834  1.0000
  O   O5        1.0  0.09626084281127946  0.3399058196965607  0.4190906787251434  1.0000
  O   O6        1.0  0.9579146177026441  0.7607033109737685  0.4025267791312195  1.0000
  O   O7        1.0  0.9565766844709981  0.5456484845791532  0.6201245209139838  1.0000
  O   O8        1.0  0.9566796648856878  0.5565337030504005  0.2010194591858816  1.0000
  O   O9        1.0  0.9553416576542462  0.3414771452613863  0.4186172807490496  1.0000
