data_image0
_chemical_formula_structural       NC9NC3OH6C7F3H5C7H7Zn2C4O8
_chemical_formula_sum              "N2 C30 O9 H18 F3 Zn2"
_cell_length_a       15.78231758774541
_cell_length_b       9.27228830945605
_cell_length_c       9.274345330872308
_cell_angle_alpha    84.82071203492734
_cell_angle_beta     89.64000707228584
_cell_angle_gamma    89.05832516092083

_space_group_name_H-M_alt    "P 1"
_space_group_IT_number       1

loop_
  _space_group_symop_operation_xyz
  'x, y, z'

loop_
  _atom_site_type_symbol
  _atom_site_label
  _atom_site_symmetry_multiplicity
  _atom_site_fract_x
  _atom_site_fract_y
  _atom_site_fract_z
  _atom_site_occupancy
  N   N1        1.0  0.7957717695605849  0.5828587695310272  0.402507962927186  1.0000
  C   C1        1.0  0.747655271765578  0.4914463737860655  0.42974658221825357  1.0000
  C   C2        1.0  0.6879167283248634  0.3779813679135027  0.46355671906031654  1.0000
  C   C3        1.0  0.7082276198278228  0.23545170726071563  0.5059394519814069  1.0000
  C   C4        1.0  0.6318108626074083  0.16637562401280337  0.5265626315507159  1.0000
  C   C5        1.0  0.5695501852419347  0.2718635362952222  0.4952404329462782  1.0000
  C   C6        1.0  0.4765474966334526  0.252359657777137  0.5011334078345819  1.0000
  C   C7        1.0  0.42225904773201517  0.3719448235145466  0.4654423711617801  1.0000
  C   C8        1.0  0.3341249243541903  0.3559520501888238  0.4702824269173192  1.0000
  C   C9        1.0  0.2791242101173754  0.47901667807156345  0.4335437768262752  1.0000
  N   N2        1.0  0.2349166091764855  0.5779447722776974  0.4040092112490474  1.0000
  C   C10       1.0  0.2995987612424982  0.22019610820557123  0.5108688984711434  1.0000
  C   C11       1.0  0.3529551326402647  0.10085814460294129  0.546490986934917  1.0000
  C   C12       1.0  0.4409055880061126  0.11641158154447195  0.5417824818279837  1.0000
  O   O1        1.0  0.605440201028306  0.3968812482957149  0.45801125065220677  1.0000
  H   H1        1.0  0.7709069108982618  0.18738602238092053  0.5201759211302768  1.0000
  H   H2        1.0  0.6235952578580131  0.05279733123797747  0.5603532385897444  1.0000
  H   H3        1.0  0.44838478577216884  0.47758705779776967  0.43385365265046355  1.0000
  H   H4        1.0  0.2315437681212028  0.20665107823031545  0.5149658153686008  1.0000
  H   H5        1.0  0.3260957971062556  0.9959381318781119  0.5778642193109949  1.0000
  H   H6        1.0  0.48042144235170364  0.021887440448805643  0.5700068525674031  1.0000
  C   C13       1.0  0.017831718757455244  0.15653229146685899  0.4054914065243238  1.0000
  C   C14       1.0  0.05860279647016226  0.23895864640084064  0.2916358109894439  1.0000
  C   C15       1.0  0.09102824678033355  0.17389099210467895  0.1727197190253878  1.0000
  C   C16       1.0  0.08239120635237368  0.024853588573205517  0.16346480718745277  1.0000
  C   C17       1.0  0.044702888379348965  0.9406962184553324  0.27916804067187573  1.0000
  C   C18       1.0  0.012864775399116447  0.004259996781364588  0.40103833944745837  1.0000
  C   C19       1.0  0.11958492418711798  0.9538668872521723  0.036819035160337465  1.0000
  F   F1        1.0  0.11940475363704636  0.04941560171221135  0.9131822537494936  1.0000
  F   F2        1.0  0.07304721020820938  0.8342452112732038  0.009148112560720229  1.0000
  F   F3        1.0  0.20207484278171173  0.9101471911730854  0.06835541046318784  1.0000
  H   H7        1.0  0.874208534528119  0.23872819548218088  0.6646023666554883  1.0000
  H   H8        1.0  0.0639410104429019  0.3551517458787754  0.29314747135299823  1.0000
  H   H9        1.0  0.12228659111844514  0.24067430364479783  0.08718285220744248  1.0000
  H   H10       1.0  0.0420098476222428  0.8243123903373841  0.27591352253381585  1.0000
  H   H11       1.0  0.9718364951680358  0.8723552831389062  0.7504278342358511  1.0000
  C   C20       1.0  0.017246134964024277  0.5836201602948012  0.9794519092984675  1.0000
  C   C21       1.0  0.9661964557505921  0.6858558686028271  0.04400493044080833  1.0000
  C   C22       1.0  0.9101488019323754  0.7765403645568141  0.9613084142129695  1.0000
  C   C23       1.0  0.9031842514782984  0.7660006211338741  0.8123959628707459  1.0000
  C   C24       1.0  0.9555240510020149  0.6678085831925358  0.7458218287996519  1.0000
  C   C25       1.0  0.013450311982585504  0.5771721232236915  0.8270777767521862  1.0000
  C   C26       1.0  0.8442019971789809  0.8658110317184958  0.7231466440281693  1.0000
  H   H12       1.0  0.9683086626730518  0.693577339421269  0.15978861137662073  1.0000
  H   H13       1.0  0.871448063343164  0.8540726306255497  0.01393484348252083  1.0000
  H   H14       1.0  0.9523353828286807  0.6645535392763138  0.629436091452249  1.0000
  H   H15       1.0  0.08325226257206747  0.36772729473879706  0.5645129771168851  1.0000
  H   H16       1.0  0.8782195942490952  0.96564156313658  0.6836144903722011  1.0000
  H   H17       1.0  0.7884224272728075  0.8958353596139437  0.7883770264159597  1.0000
  H   H18       1.0  0.8207088237642693  0.8127358200415409  0.6287438558143683  1.0000
  Zn  Zn1       1.0  0.9224994658767768  0.5814367771572966  0.40294953846100273  1.0000
  Zn  Zn2       1.0  0.1081889005599736  0.5793548942073996  0.4035794954496763  1.0000
  C   C27       1.0  0.014199624633110185  0.5726407070641804  0.6668885658221909  1.0000
  C   C28       1.0  0.01649075822128654  0.5881527617193016  0.13964060705341264  1.0000
  C   C29       1.0  0.013825008929484454  0.8440651991402797  0.3961288924002272  1.0000
  C   C30       1.0  0.016865320378373724  0.3167265355826099  0.41040036631451593  1.0000
  O   O2        1.0  0.08670545651553269  0.5888775832911255  0.19364049583467646  1.0000
  O   O3        1.0  0.08491891894288006  0.5703346987606669  0.6133663900862849  1.0000
  O   O4        1.0  0.08461545535963849  0.7895134079778774  0.39472602702179294  1.0000
  O   O5        1.0  0.08700885715963924  0.36969888593305056  0.4122807504180919  1.0000
  O   O6        1.0  0.9436794459104453  0.7910927861437189  0.39424828327001404  1.0000
  O   O7        1.0  0.943982899673559  0.5719158116991743  0.6128885602727933  1.0000
  O   O8        1.0  0.945769445367658  0.5904586591294313  0.19316093111052804  1.0000
  O   O9        1.0  0.9460728455842338  0.3712799506242934  0.4118012939524469  1.0000
