data_image0
_chemical_formula_structural       NC8Br2C7NH8C12H10C12H10Zn2C4O8
_chemical_formula_sum              "N2 C43 Br2 H28 Zn2 O8"
_cell_length_a       18.47481811020543
_cell_length_b       14.994056859933256
_cell_length_c       13.024585202197208
_cell_angle_alpha    85.82059027263038
_cell_angle_beta     93.98418679014542
_cell_angle_gamma    90.04552606929398

_space_group_name_H-M_alt    "P 1"
_space_group_IT_number       1

loop_
  _space_group_symop_operation_xyz
  'x, y, z'

loop_
  _atom_site_type_symbol
  _atom_site_label
  _atom_site_symmetry_multiplicity
  _atom_site_fract_x
  _atom_site_fract_y
  _atom_site_fract_z
  _atom_site_occupancy
  N   N1        1.0  0.6255879315377452  0.9731625007063794  0.8648893439706218  1.0000
  C   C1        1.0  0.5759793183682602  0.9782241977598471  0.9137659335072135  1.0000
  C   C2        1.0  0.5142707768934416  0.9845199324740077  0.9745625117083192  1.0000
  C   C3        1.0  0.5136852628184784  0.9374845998675263  0.07120230607096378  1.0000
  C   C4        1.0  0.4538831641110226  0.9435777109953681  0.13053586031736975  1.0000
  C   C5        1.0  0.392746000033495  0.9956808205088319  0.09317626568316595  1.0000
  C   C6        1.0  0.39526865001562206  0.04481883701198151  0.9968504121756081  1.0000
  C   C7        1.0  0.455103603050723  0.03855618713191578  0.9377564752683987  1.0000
  C   C8        1.0  0.3274967828277545  0.00673230388566171  0.157414563955671  1.0000
  Br  Br1       1.0  0.3207656072278676  0.9141396397461641  0.2698011131883523  1.0000
  Br  Br2       1.0  0.3429022266389115  0.11944868196901237  0.22184796122901007  1.0000
  C   C9        1.0  0.2558614675139843  0.002967905665895774  0.09147410180392146  1.0000
  C   C10       1.0  0.19713237199620712  0.060658026796282405  0.10318716839820341  1.0000
  C   C11       1.0  0.1315234977547204  0.05327887439806167  0.04415407401351101  1.0000
  C   C12       1.0  0.12275126593791626  0.9872493504574678  0.9739249980910528  1.0000
  C   C13       1.0  0.1796066072418966  0.9278493516849368  0.9636159795279524  1.0000
  C   C14       1.0  0.24522907751996809  0.935014461799714  0.02249915174807704  1.0000
  C   C15       1.0  0.055091643405042176  0.979737876284521  0.9134123343836624  1.0000
  N   N2        1.0  0.0006988207942264083  0.9736992922570319  0.8647639966982246  1.0000
  H   H1        1.0  0.559750546715195  0.8964756697927551  0.1011346535238393  1.0000
  H   H2        1.0  0.45654025782307023  0.907748487838341  0.20569470591830696  1.0000
  H   H3        1.0  0.3506640550050907  0.0882983022386547  0.9672568712963312  1.0000
  H   H4        1.0  0.45534132458001314  0.07628449466967235  0.8635967675091982  1.0000
  H   H5        1.0  0.20085914225624255  0.11129859893570937  0.1581471672792568  1.0000
  H   H6        1.0  0.0874040146021386  0.09880222826514973  0.05387338964740451  1.0000
  H   H7        1.0  0.1731230925718086  0.8756301210244954  0.9104667365784884  1.0000
  H   H8        1.0  0.2879754455676353  0.8872238665730309  0.01422524537931502  1.0000
  C   C16       1.0  0.8132112933707144  0.7114667265682569  0.8647530072718921  1.0000
  C   C17       1.0  0.8428659889632238  0.6689373158549479  0.7845485572659594  1.0000
  C   C18       1.0  0.8428616762938508  0.5757128082962942  0.78460600583599  1.0000
  C   C19       1.0  0.8131576290718296  0.5229666445864589  0.8647960410634532  1.0000
  C   C20       1.0  0.7834883049011935  0.5655990571193235  0.9449444829601756  1.0000
  C   C21       1.0  0.7835468822725489  0.6588242809439537  0.9449328654933133  1.0000
  C   C22       1.0  0.8131208938771374  0.4238899426816434  0.8648406430660804  1.0000
  C   C23       1.0  0.752437572720075  0.3743106084081278  0.894528309354951  1.0000
  C   C24       1.0  0.7523965496436106  0.2810898502210404  0.8945259502403715  1.0000
  C   C25       1.0  0.8130828268311979  0.23538826061606474  0.8649092205768802  1.0000
  C   C26       1.0  0.8737532177647104  0.2848611417773236  0.8352751784327664  1.0000
  C   C27       1.0  0.8737699628625022  0.37809064029994943  0.8351953415655295  1.0000
  H   H9        1.0  0.7832290710297628  0.9191430049124858  0.9457511603675173  1.0000
  H   H10       1.0  0.8659518495131129  0.7076835286406815  0.7214919488268311  1.0000
  H   H11       1.0  0.865260466946104  0.5449233346050882  0.7210817357573771  1.0000
  H   H12       1.0  0.7610651438752842  0.5267886452806172  0.00849757996049827  1.0000
  H   H13       1.0  0.7604827028860616  0.6895789437686981  0.007969290306877545  1.0000
  H   H14       1.0  0.7045308854482254  0.40770762827916823  0.9164695023658416  1.0000
  H   H15       1.0  0.7047183783954412  0.24485756901379777  0.9174922809787746  1.0000
  H   H16       1.0  0.9214139571772514  0.25159205194874  0.8123362073213622  1.0000
  H   H17       1.0  0.9217004261772735  0.41429352403457337  0.8132242401629963  1.0000
  H   H18       1.0  0.8743745656971028  0.024511323366685503  0.8349519356807551  1.0000
  C   C28       1.0  0.7983114063092912  0.9723355976199233  0.5626168597404246  1.0000
  C   C29       1.0  0.7822926231484589  0.043597829393905  0.4882136689893477  1.0000
  C   C30       1.0  0.8070229442296765  0.04226743423154433  0.38932489697037975  1.0000
  C   C31       1.0  0.8477128570766521  0.9694356301797578  0.3628423312621525  1.0000
  C   C32       1.0  0.8644190691963931  0.8986819602472622  0.4371722575639554  1.0000
  C   C33       1.0  0.8397252054167675  0.8999375437443706  0.5361042587726268  1.0000
  C   C34       1.0  0.8749330348915371  0.968651262159617  0.2586329167892538  1.0000
  C   C35       1.0  0.9504222831165754  0.9658508896392505  0.2509246070940869  1.0000
  C   C36       1.0  0.9795174774205245  0.9706230281887375  0.15469196381022327  1.0000
  C   C37       1.0  0.9337348355806977  0.97844147884856  0.06486102900028246  1.0000
  C   C38       1.0  0.8586176902410227  0.9804083077272406  0.07082634074436256  1.0000
  C   C39       1.0  0.8279826735128497  0.9745193680792522  0.16704531551744048  1.0000
  H   H19       1.0  0.7708707416781044  0.902640623404788  0.8125476935574366  1.0000
  H   H20       1.0  0.7507822606565414  0.10049880298649105  0.5064239586923673  1.0000
  H   H21       1.0  0.7945486747151642  0.09809613136992647  0.33334830049693975  1.0000
  H   H22       1.0  0.8962327803025819  0.8422423608993479  0.41828064250751207  1.0000
  H   H23       1.0  0.8531350711761854  0.8442049114958355  0.5917624243263906  1.0000
  H   H24       1.0  0.9869899336078339  0.9615502550276984  0.31985793725054035  1.0000
  H   H25       1.0  0.037740587206890774  0.9689367262745093  0.14979077913575445  1.0000
  H   H26       1.0  0.9564735976795866  0.9824078459949063  0.9902876552959676  1.0000
  H   H27       1.0  0.8243428600661533  0.9849039205667837  0.9997063223721517  1.0000
  H   H28       1.0  0.6497837829301168  0.0053548517653951855  0.08257961466881802  1.0000
  Zn  Zn1       1.0  0.7338371238434428  0.9733150389809448  0.8648591044923  1.0000
  Zn  Zn2       1.0  0.8924500311660802  0.973539479965441  0.864802631591534  1.0000
  C   C40       1.0  0.8223734475369929  0.9705527561618295  0.052794361630418285  1.0000
  C   C41       1.0  0.8039154442031051  0.9763028911762329  0.676867475182562  1.0000
  C   C42       1.0  0.8129020550222442  0.13634109373055625  0.8607786335683265  1.0000
  C   C43       1.0  0.8133867855506358  0.8105134819496458  0.8688832578122736  1.0000
  O   O1        1.0  0.8659889831789851  0.9777156334937133  0.7151895930854362  1.0000
  O   O2        1.0  0.8806834207881733  0.9693096853118263  0.014429085649159791  1.0000
  O   O3        1.0  0.8730343926542701  0.10318586729629879  0.8593750272613221  1.0000
  O   O4        1.0  0.8736379533995067  0.8438394575353639  0.8702435743302874  1.0000
  O   O5        1.0  0.7526491474829495  0.10301506133538241  0.8594181617674048  1.0000
  O   O6        1.0  0.7602981726570041  0.9691399509331329  0.014472165601481117  1.0000
  O   O7        1.0  0.7456036743634652  0.9775458635581581  0.7152314357028564  1.0000
  O   O8        1.0  0.753252648370302  0.8436696814980472  0.8702854941045526  1.0000
