data_image0
_chemical_formula_structural       NC5NC3BrH3C6NCH9C9H8Zn2C4O8
_chemical_formula_sum              "N3 C28 Br1 H20 Zn2 O8"
_cell_length_a       13.839083392302014
_cell_length_b       9.273386996610926
_cell_length_c       9.275155815604963
_cell_angle_alpha    85.96204841331945
_cell_angle_beta     90.35828541235293
_cell_angle_gamma    89.42455387291925

_space_group_name_H-M_alt    "P 1"
_space_group_IT_number       1

loop_
  _space_group_symop_operation_xyz
  'x, y, z'

loop_
  _atom_site_type_symbol
  _atom_site_label
  _atom_site_symmetry_multiplicity
  _atom_site_fract_x
  _atom_site_fract_y
  _atom_site_fract_z
  _atom_site_occupancy
  N   N1        1.0  0.8922271959133906  0.5657596985485178  0.40764542766656975  1.0000
  C   C1        1.0  0.8206829503349384  0.5021091821736638  0.4102142142295977  1.0000
  C   C2        1.0  0.7315439346151434  0.4229059313289947  0.4134105151870757  1.0000
  C   C3        1.0  0.6434386505546698  0.4991166571438621  0.4103351738484613  1.0000
  C   C4        1.0  0.5559301582967157  0.4243788609244652  0.41335101787029854  1.0000
  C   C5        1.0  0.46560551745795575  0.5029413123752029  0.41018061616003765  1.0000
  N   N2        1.0  0.39299619726643525  0.5660993626318076  0.4076316647119522  1.0000
  C   C6        1.0  0.5564633607928612  0.27311879258637894  0.419454823103089  1.0000
  C   C7        1.0  0.6441244719829268  0.19678678122963994  0.42253496734510243  1.0000
  C   C8        1.0  0.7318341352711717  0.2708103526602923  0.4195479646505358  1.0000
  Br  Br1       1.0  0.8500298888471303  0.16070447923742434  0.42399116134585313  1.0000
  H   H1        1.0  0.6429703724623954  0.6163304066988302  0.4056050419933579  1.0000
  H   H2        1.0  0.4891927148773358  0.2142578944891642  0.4218297721827941  1.0000
  H   H3        1.0  0.6438277567475572  0.07982226995286101  0.42725466424308833  1.0000
  C   C9        1.0  0.1455906325464631  0.14228365064710413  0.4083466951285504  1.0000
  C   C10       1.0  0.16201984507051836  0.22464760942251627  0.278034155123813  1.0000
  C   C11       1.0  0.16935100024894803  0.15902683965755338  0.1477138093224197  1.0000
  C   C12       1.0  0.16035823365288615  0.008691297814799272  0.14437401727545285  1.0000
  C   C13       1.0  0.14562998729230214  0.9253616780000102  0.2742338356253424  1.0000
  C   C14       1.0  0.13964211442635044  0.9895643763205324  0.40694293430054373  1.0000
  N   N3        1.0  0.16686144896834332  0.9380103594583401  0.011363105889554031  1.0000
  C   C15       1.0  0.18237859604538276  0.014705596731055653  0.8707210421278079  1.0000
  H   H4        1.0  0.16630735591884926  0.4064811268453659  0.6449616928852975  1.0000
  H   H5        1.0  0.16694103259504245  0.3412816056465211  0.27626584322627523  1.0000
  H   H6        1.0  0.18113306440934032  0.22679345855289032  0.049816583721858494  1.0000
  H   H7        1.0  0.14105973796172955  0.808937919170854  0.27196036046952066  1.0000
  H   H8        1.0  0.17666690193302267  0.8612520348675478  0.7579701815996276  1.0000
  H   H9        1.0  0.1600423443222423  0.8256643621189617  0.01435189760233202  1.0000
  H   H10       1.0  0.12237330628920964  0.0930227061615927  0.8456817969901933  1.0000
  H   H11       1.0  0.252318628269395  0.07230678408729106  0.8709516890105506  1.0000
  H   H12       1.0  0.18446271727709407  0.9365352735075032  0.7853991040710926  1.0000
  C   C16       1.0  0.14087154249120792  0.5622762678104254  0.9844196559564388  1.0000
  C   C17       1.0  0.06478704481502606  0.6325201459521144  0.05212013341465438  1.0000
  C   C18       1.0  0.9951073849744699  0.7123563119690921  0.9707049076554894  1.0000
  C   C19       1.0  0.00021867007434784338  0.7236204940269184  0.8201043109105615  1.0000
  C   C20       1.0  0.07436412724528041  0.6526001875060015  0.7506968062161068  1.0000
  C   C21       1.0  0.14436120482489986  0.5695717325507639  0.8308699010709617  1.0000
  C   C22       1.0  0.9285621281312051  0.8068257755079455  0.7363709361128077  1.0000
  C   C23       1.0  0.8685626575395164  0.876498838065737  0.6662290198569316  1.0000
  C   C24       1.0  0.7957640837176948  0.9610353195422349  0.5811121875341625  1.0000
  H   H13       1.0  0.36597080124587067  0.4460330412712079  0.09756419910714986  1.0000
  H   H14       1.0  0.06047394069800882  0.628518146146104  0.1689184163099351  1.0000
  H   H15       1.0  0.9377050617980779  0.7665411661116615  0.02542966297506166  1.0000
  H   H16       1.0  0.07610185028140304  0.6593851953420727  0.6335392218136775  1.0000
  H   H17       1.0  0.29459752365146596  0.4861282085216975  0.5574218286415338  1.0000
  H   H18       1.0  0.8153704894230167  0.9651936417027885  0.46510579355895615  1.0000
  H   H19       1.0  0.7241583520488231  0.9096138849946118  0.5962255575865956  1.0000
  H   H20       1.0  0.792536566656044  0.07242977419036746  0.617432418062688  1.0000
  Zn  Zn1       1.0  0.03673837694457904  0.565853922118764  0.407649791579745  1.0000
  Zn  Zn2       1.0  0.24848514015512405  0.5659934164210676  0.40763914802690837  1.0000
  C   C25       1.0  0.14373979206968432  0.5624455561694452  0.6708822374003931  1.0000
  C   C26       1.0  0.14148602510171457  0.569403605383126  0.14440684053040287  1.0000
  C   C27       1.0  0.14073787596832804  0.8293607943186785  0.401465091659285  1.0000
  C   C28       1.0  0.1444878814342483  0.3024866345771983  0.41382406598460664  1.0000
  O   O1        1.0  0.2220490883770354  0.5718422485199133  0.19809597242928678  1.0000
  O   O2        1.0  0.22388762851499155  0.5601116940740891  0.6171846142177368  1.0000
  O   O3        1.0  0.2214624662289968  0.7756491366861311  0.3996283604299289  1.0000
  O   O4        1.0  0.22447417789024038  0.356304815248991  0.415652118141838  1.0000
  O   O5        1.0  0.060749266950641756  0.7755425232447437  0.3996368214608641  1.0000
  O   O6        1.0  0.06317441674663903  0.5600068132432992  0.6171929955316258  1.0000
  O   O7        1.0  0.06133586988217089  0.5717373024816714  0.19810262105799525  1.0000
  O   O8        1.0  0.0637609599093456  0.3561998598235323  0.4156588748418528  1.0000
