data_image0
_chemical_formula_structural       NC5NC3F3CH3C9H10C9H10Zn2C4O8
_chemical_formula_sum              "N2 C31 F3 H23 Zn2 O8"
_cell_length_a       13.85151926108384
_cell_length_b       10.297183801781406
_cell_length_c       10.297187173949778
_cell_angle_alpha    85.54101213387429
_cell_angle_beta     89.97408904731064
_cell_angle_gamma    89.99762972311773

_space_group_name_H-M_alt    "P 1"
_space_group_IT_number       1

loop_
  _space_group_symop_operation_xyz
  'x, y, z'

loop_
  _atom_site_type_symbol
  _atom_site_label
  _atom_site_symmetry_multiplicity
  _atom_site_fract_x
  _atom_site_fract_y
  _atom_site_fract_z
  _atom_site_occupancy
  N   N1        1.0  0.9095202307097772  0.4215072108211076  0.5665249154273733  1.0000
  C   C1        1.0  0.8371720434865035  0.4133351617483274  0.6228163259591748  1.0000
  C   C2        1.0  0.7471652069536338  0.4031680120663155  0.6928508935270685  1.0000
  C   C3        1.0  0.6596617725225395  0.4114660735876698  0.6247929924737259  1.0000
  C   C4        1.0  0.5721132174561979  0.4031680002228209  0.6928508754580835  1.0000
  C   C5        1.0  0.4821527913382819  0.4133351763060007  0.622816410715221  1.0000
  N   N2        1.0  0.4098420450656145  0.4215071767034932  0.5665250104648708  1.0000
  C   C6        1.0  0.5720588083797502  0.3856729361790183  0.8291257020112759  1.0000
  C   C7        1.0  0.659571022713445  0.3745017153883734  0.8983221804267102  1.0000
  C   C8        1.0  0.6595221049559953  0.3604882683550763  0.04522428160003089  1.0000
  F   F1        1.0  0.7404429449053048  0.29310270502506053  0.09175260898644677  1.0000
  F   F2        1.0  0.5785741302153516  0.2931026774727985  0.09175269847374079  1.0000
  F   F3        1.0  0.65950268030292  0.482832136930506  0.0917720554217857  1.0000
  C   C9        1.0  0.747129135217357  0.3856728503792261  0.8291257197268995  1.0000
  H   H1        1.0  0.6596968092073237  0.4251556771981137  0.5192841225838805  1.0000
  H   H2        1.0  0.503918240392402  0.38101509744957895  0.8810772116294145  1.0000
  H   H3        1.0  0.8152349939262821  0.3810150245731564  0.881077174681307  1.0000
  C   C10       1.0  0.1596890694381861  0.040031669612676346  0.5667089960695739  1.0000
  C   C11       1.0  0.1569204378402869  0.04987482511619311  0.430018034072741  1.0000
  C   C12       1.0  0.1555017636046121  0.9383012741326349  0.3599872569750389  1.0000
  C   C13       1.0  0.15690930527181068  0.8147036670630596  0.429488240144392  1.0000
  C   C14       1.0  0.15968244569641543  0.8029727522562091  0.5663520962335709  1.0000
  C   C15       1.0  0.16105330882295962  0.9161127718965265  0.6340690582236199  1.0000
  C   C16       1.0  0.15250702592493193  0.9583795366586063  0.21214632962010116  1.0000
  C   C17       1.0  0.09600186374433278  0.8596537208793134  0.13983600707264987  1.0000
  C   C18       1.0  0.2059890343256046  0.8599614240098723  0.13570951803149134  1.0000
  H   H4        1.0  0.16076507891556882  0.36377724006481715  0.6193804081134511  1.0000
  H   H5        1.0  0.15585179602324772  0.145097191545015  0.377247781286425  1.0000
  H   H6        1.0  0.15586799729745351  0.7270976457062561  0.3781834070674582  1.0000
  H   H7        1.0  0.1631888823594181  0.9077911278608618  0.7395290058163708  1.0000
  H   H8        1.0  0.16490730278427163  0.573599907410327  0.8248493826429318  1.0000
  H   H9        1.0  0.15154535091366486  0.05908925111655038  0.16462765660731904  1.0000
  H   H10       1.0  0.06376699804933428  0.7760234898971049  0.1989505487141843  1.0000
  H   H11       1.0  0.061973426732649724  0.9005153778987178  0.0479315787715222  1.0000
  H   H12       1.0  0.24056546819889968  0.7765189059529779  0.19231811728424988  1.0000
  H   H13       1.0  0.23624325859730827  0.9010005524924277  0.041392139965880766  1.0000
  C   C19       1.0  0.15981337941833457  0.42145525197504613  0.18507742822495366  1.0000
  C   C20       1.0  0.06197692851820746  0.4571361548084014  0.18157881870096637  1.0000
  C   C21       1.0  0.011852431077423961  0.4754163151421942  0.06316997425318926  1.0000
  C   C22       1.0  0.06159766636112818  0.4572739732044409  0.946356029115449  1.0000
  C   C23       1.0  0.15955812829273408  0.4215491915203644  0.9479836939497034  1.0000
  C   C24       1.0  0.20802626680585656  0.40387184705024914  0.06773325960626521  1.0000
  C   C25       1.0  0.9060352579012344  0.5140074959399574  0.0688181481181034  1.0000
  C   C26       1.0  0.8384477467369917  0.4617573893576254  0.9685707372636276  1.0000
  C   C27       1.0  0.8671542188996528  0.6050722013946401  0.9574042029183093  1.0000
  H   H14       1.0  0.1975155004278809  0.4077180447347228  0.5139629595930957  1.0000
  H   H15       1.0  0.024206764899658246  0.470911266409937  0.27165052153049096  1.0000
  H   H16       1.0  0.024875577729701615  0.47066350953531805  0.8537426622849349  1.0000
  H   H17       1.0  0.28350895425845435  0.37634263477810137  0.06970516340637412  1.0000
  H   H18       1.0  0.34457419556026275  0.3540585155709366  0.7438427536999243  1.0000
  H   H19       1.0  0.8720240353681523  0.5264124524130238  0.164889624574855  1.0000
  H   H20       1.0  0.8711427545185332  0.40312417718356247  0.894073184511678  1.0000
  H   H21       1.0  0.7634150065691018  0.44418014905997166  0.003697530654638073  1.0000
  H   H22       1.0  0.9172873123219535  0.633494738538243  0.8761245196149496  1.0000
  H   H23       1.0  0.8088982866461641  0.6712565499432894  0.9860022313712236  1.0000
  Zn  Zn1       1.0  0.05390229648972977  0.42150373392419405  0.5665324316620115  1.0000
  Zn  Zn2       1.0  0.2654599583784998  0.42150005915025535  0.5665280904025308  1.0000
  C   C28       1.0  0.15960425845018156  0.41635628916537964  0.8037804917856344  1.0000
  C   C29       1.0  0.15976030656421258  0.42664914296232004  0.32928015695940593  1.0000
  C   C30       1.0  0.15968044679284235  0.6587600069201529  0.5612432650175985  1.0000
  C   C31       1.0  0.15968404602212138  0.18424386447854046  0.5718174537128937  1.0000
  O   O1        1.0  0.24002752502363833  0.4283851983415117  0.37767426519648195  1.0000
  O   O2        1.0  0.23990441038689397  0.41461646467536845  0.7553827151628751  1.0000
  O   O3        1.0  0.2399648507045944  0.6103605325608361  0.5595321879469584  1.0000
  O   O4        1.0  0.23996701254814526  0.2326411397381274  0.5735246950133621  1.0000
  O   O5        1.0  0.0793951701258393  0.6103626533389896  0.5595358270458284  1.0000
  O   O6        1.0  0.07933472981332423  0.414620146185195  0.7553862842709413  1.0000
  O   O7        1.0  0.07945784503721476  0.4283888343904688  0.3776762725802365  1.0000
  O   O8        1.0  0.07939733252526904  0.23264476650766805  0.5735267997908013  1.0000
