data_image0
_chemical_formula_structural       Sm8H16C56N16O48
_chemical_formula_sum              "Sm8 H16 C56 N16 O48"
_cell_length_a       10.962
_cell_length_b       11.868
_cell_length_c       19.307
_cell_angle_alpha    90.0
_cell_angle_beta     90.0
_cell_angle_gamma    90.0

_space_group_name_H-M_alt    "P 1"
_space_group_IT_number       1

loop_
  _space_group_symop_operation_xyz
  'x, y, z'

loop_
  _atom_site_type_symbol
  _atom_site_label
  _atom_site_symmetry_multiplicity
  _atom_site_fract_x
  _atom_site_fract_y
  _atom_site_fract_z
  _atom_site_occupancy
  Sm  Sm1       1.0  0.36276  0.65766  0.6011899999999999  1.0000
  Sm  Sm2       1.0  0.8812000000000001  0.47291999999999995  0.81564  1.0000
  Sm  Sm3       1.0  0.63724  0.34234  0.10118999999999997  1.0000
  Sm  Sm4       1.0  0.1188  0.52708  0.3156399999999999  1.0000
  Sm  Sm5       1.0  0.13724  0.15766  0.6011899999999999  1.0000
  Sm  Sm6       1.0  0.6188  0.9729199999999998  0.81564  1.0000
  Sm  Sm7       1.0  0.86276  0.84234  0.10118999999999997  1.0000
  Sm  Sm8       1.0  0.3812  0.02708  0.3156399999999999  1.0000
  H   H1        1.0  0.148  0.5047  0.7071  1.0000
  H   H2        1.0  0.2709  0.7525999999999999  0.8697999999999998  1.0000
  H   H3        1.0  0.6277  0.6016  0.7150999999999998  1.0000
  H   H4        1.0  0.49509999999999993  0.242  0.7015  1.0000
  H   H5        1.0  0.8519999999999999  0.49529999999999996  0.2071  1.0000
  H   H6        1.0  0.7291  0.24739999999999998  0.3698  1.0000
  H   H7        1.0  0.3723  0.3983999999999999  0.21509999999999999  1.0000
  H   H8        1.0  0.5049  0.7579999999999999  0.20149999999999998  1.0000
  H   H9        1.0  0.352  0.004699999999999999  0.7071  1.0000
  H   H10       1.0  0.2291  0.2526  0.8697999999999998  1.0000
  H   H11       1.0  0.8723  0.10159999999999998  0.7150999999999998  1.0000
  H   H12       1.0  0.0049  0.742  0.7015  1.0000
  H   H13       1.0  0.648  0.9952999999999999  0.2071  1.0000
  H   H14       1.0  0.7709  0.7473999999999997  0.3698  1.0000
  H   H15       1.0  0.1277  0.8983999999999998  0.21509999999999999  1.0000
  H   H16       1.0  0.9951  0.258  0.20149999999999998  1.0000
  C   C1        1.0  0.1698  0.5592  0.7394  1.0000
  C   C2        1.0  0.1356  0.6441  0.8424999999999999  1.0000
  C   C3        1.0  0.2431  0.7049  0.8349999999999997  1.0000
  C   C4        1.0  0.3064  0.6919999999999998  0.7748  1.0000
  C   C5        1.0  0.4129999999999999  0.7687  0.7564999999999998  1.0000
  C   C6        1.0  0.0517  0.6628  0.9043  1.0000
  C   C7        1.0  0.6007  0.5275  0.7122999999999999  1.0000
  C   C8        1.0  0.6265  0.3429  0.74  1.0000
  C   C9        1.0  0.5221  0.3161  0.7047  1.0000
  C   C10       1.0  0.4587  0.4028  0.6741999999999999  1.0000
  C   C11       1.0  0.339  0.3835  0.6360999999999999  1.0000
  C   C12       1.0  0.7036  0.2531  0.7753999999999999  1.0000
  C   C13       1.0  0.8221  0.3802  0.9709999999999999  1.0000
  C   C14       1.0  0.7005  0.43249999999999994  0.9469  1.0000
  C   C15       1.0  0.8301999999999999  0.4407999999999999  0.23939999999999997  1.0000
  C   C16       1.0  0.8644  0.35589999999999994  0.3425  1.0000
  C   C17       1.0  0.7569  0.2951  0.33499999999999996  1.0000
  C   C18       1.0  0.6936  0.308  0.2748  1.0000
  C   C19       1.0  0.587  0.23129999999999995  0.2565  1.0000
  C   C20       1.0  0.9483000000000001  0.3372  0.40429999999999994  1.0000
  C   C21       1.0  0.3993  0.4724999999999999  0.21229999999999996  1.0000
  C   C22       1.0  0.3735  0.6571  0.23999999999999996  1.0000
  C   C23       1.0  0.47789999999999994  0.6839  0.2047  1.0000
  C   C24       1.0  0.5413  0.5971999999999998  0.1742  1.0000
  C   C25       1.0  0.661  0.6165  0.1361  1.0000
  C   C26       1.0  0.2964  0.7468999999999999  0.2753999999999999  1.0000
  C   C27       1.0  0.1779  0.6198  0.471  1.0000
  C   C28       1.0  0.2995  0.5675  0.44689999999999996  1.0000
  C   C29       1.0  0.3302  0.05919999999999999  0.7394  1.0000
  C   C30       1.0  0.3644  0.1441  0.8424999999999999  1.0000
  C   C31       1.0  0.2569  0.2049  0.8349999999999997  1.0000
  C   C32       1.0  0.1936  0.192  0.7748  1.0000
  C   C33       1.0  0.087  0.2687  0.7564999999999998  1.0000
  C   C34       1.0  0.4482999999999999  0.1628  0.9043  1.0000
  C   C35       1.0  0.8993  0.027499999999999997  0.7122999999999999  1.0000
  C   C36       1.0  0.8735  0.8429  0.74  1.0000
  C   C37       1.0  0.9779  0.8161  0.7047  1.0000
  C   C38       1.0  0.041299999999999996  0.9028  0.6741999999999999  1.0000
  C   C39       1.0  0.161  0.8834999999999998  0.6360999999999999  1.0000
  C   C40       1.0  0.7964  0.7531  0.7753999999999999  1.0000
  C   C41       1.0  0.6779  0.8802  0.9709999999999999  1.0000
  C   C42       1.0  0.7994999999999999  0.9324999999999998  0.9469  1.0000
  C   C43       1.0  0.6698  0.9407999999999999  0.23939999999999997  1.0000
  C   C44       1.0  0.6356  0.8559  0.3425  1.0000
  C   C45       1.0  0.7431  0.7951  0.33499999999999996  1.0000
  C   C46       1.0  0.8064  0.8079999999999998  0.2748  1.0000
  C   C47       1.0  0.9129999999999999  0.7313  0.2565  1.0000
  C   C48       1.0  0.5517  0.8372  0.40429999999999994  1.0000
  C   C49       1.0  0.1007  0.9725  0.21229999999999996  1.0000
  C   C50       1.0  0.1265  0.1571  0.23999999999999996  1.0000
  C   C51       1.0  0.0221  0.1839  0.2047  1.0000
  C   C52       1.0  0.9586999999999999  0.0972  0.1742  1.0000
  C   C53       1.0  0.839  0.11649999999999999  0.1361  1.0000
  C   C54       1.0  0.20359999999999998  0.2469  0.2753999999999999  1.0000
  C   C55       1.0  0.3221  0.11979999999999999  0.471  1.0000
  C   C56       1.0  0.2005  0.0675  0.44689999999999996  1.0000
  N   N1        1.0  0.2704  0.6188999999999999  0.7262  1.0000
  N   N2        1.0  0.0984  0.5704  0.794  1.0000
  N   N3        1.0  0.49889999999999995  0.5091  0.6757  1.0000
  N   N4        1.0  0.667  0.4504  0.7452  1.0000
  N   N5        1.0  0.7296  0.3811  0.22619999999999998  1.0000
  N   N6        1.0  0.9016  0.4296  0.2939999999999999  1.0000
  N   N7        1.0  0.5011  0.4909  0.1757  1.0000
  N   N8        1.0  0.333  0.5495999999999999  0.24519999999999997  1.0000
  N   N9        1.0  0.2296  0.1189  0.7262  1.0000
  N   N10       1.0  0.4016  0.0704  0.794  1.0000
  N   N11       1.0  0.0011  0.0091  0.6757  1.0000
  N   N12       1.0  0.8329999999999999  0.9503999999999999  0.7452  1.0000
  N   N13       1.0  0.7704000000000001  0.8811  0.22619999999999998  1.0000
  N   N14       1.0  0.5984  0.9296  0.2939999999999999  1.0000
  N   N15       1.0  0.9989  0.9908999999999999  0.1757  1.0000
  N   N16       1.0  0.167  0.049599999999999984  0.24519999999999997  1.0000
  O   O1        1.0  0.4545  0.7601  0.6961999999999998  1.0000
  O   O2        1.0  0.4498  0.8343  0.8031  1.0000
  O   O3        1.0  0.9557999999999999  0.6045  0.9055999999999997  1.0000
  O   O4        1.0  0.0845  0.7332  0.9464999999999998  1.0000
  O   O5        1.0  0.294  0.4656  0.6033  1.0000
  O   O6        1.0  0.2919  0.2885  0.6435999999999998  1.0000
  O   O7        1.0  0.7997999999999998  0.2839  0.8043  1.0000
  O   O8        1.0  0.666  0.1539  0.772  1.0000
  O   O9        1.0  0.8253  0.3464999999999999  0.0323  1.0000
  O   O10       1.0  0.9086  0.37679999999999997  0.9270999999999998  1.0000
  O   O11       1.0  0.6095  0.4186  0.9846  1.0000
  O   O12       1.0  0.7042  0.4868  0.8900999999999999  1.0000
  O   O13       1.0  0.5455  0.23989999999999995  0.19619999999999993  1.0000
  O   O14       1.0  0.5502  0.1657  0.3030999999999999  1.0000
  O   O15       1.0  0.0442  0.3955  0.4055999999999999  1.0000
  O   O16       1.0  0.9155  0.2668  0.44649999999999995  1.0000
  O   O17       1.0  0.706  0.5344  0.10329999999999998  1.0000
  O   O18       1.0  0.7081  0.7114999999999999  0.14359999999999998  1.0000
  O   O19       1.0  0.2002  0.7161  0.3043  1.0000
  O   O20       1.0  0.334  0.8461  0.27199999999999996  1.0000
  O   O21       1.0  0.1747  0.6535  0.5323  1.0000
  O   O22       1.0  0.0914  0.6232  0.4271  1.0000
  O   O23       1.0  0.3905  0.5814  0.4846  1.0000
  O   O24       1.0  0.2958  0.5132  0.3901  1.0000
  O   O25       1.0  0.045500000000000006  0.2601  0.6961999999999998  1.0000
  O   O26       1.0  0.0502  0.3343  0.8031  1.0000
  O   O27       1.0  0.5442  0.10449999999999998  0.9055999999999997  1.0000
  O   O28       1.0  0.4154999999999999  0.23319999999999994  0.9464999999999998  1.0000
  O   O29       1.0  0.20599999999999996  0.9656  0.6033  1.0000
  O   O30       1.0  0.2081  0.7884999999999998  0.6435999999999998  1.0000
  O   O31       1.0  0.7002  0.7839  0.8043  1.0000
  O   O32       1.0  0.834  0.6539  0.772  1.0000
  O   O33       1.0  0.6747  0.8465  0.0323  1.0000
  O   O34       1.0  0.5914  0.8767999999999998  0.9270999999999998  1.0000
  O   O35       1.0  0.8905000000000001  0.9186  0.9846  1.0000
  O   O36       1.0  0.7958  0.9868  0.8900999999999999  1.0000
  O   O37       1.0  0.9545  0.7399  0.19619999999999993  1.0000
  O   O38       1.0  0.9498  0.6656999999999998  0.3030999999999999  1.0000
  O   O39       1.0  0.4558  0.8955  0.4055999999999999  1.0000
  O   O40       1.0  0.5845  0.7668  0.44649999999999995  1.0000
  O   O41       1.0  0.7939999999999999  0.0344  0.10329999999999998  1.0000
  O   O42       1.0  0.7919  0.2115  0.14359999999999998  1.0000
  O   O43       1.0  0.2998  0.21609999999999996  0.3043  1.0000
  O   O44       1.0  0.166  0.3461  0.27199999999999996  1.0000
  O   O45       1.0  0.3253  0.1535  0.5323  1.0000
  O   O46       1.0  0.4086  0.1232  0.4271  1.0000
  O   O47       1.0  0.1095  0.0814  0.4846  1.0000
  O   O48       1.0  0.2042  0.0132  0.3901  1.0000
