data_image0
_chemical_formula_structural       NC5NC3F3CH3C7NH5C6NCH6Zn2C4O8
_chemical_formula_sum              "N4 C27 F3 H14 Zn2 O8"
_cell_length_a       13.85151926108384
_cell_length_b       9.275154477615127
_cell_length_c       9.273390368590327
_cell_angle_alpha    86.39388611738053
_cell_angle_beta     89.99084653650657
_cell_angle_gamma    89.43371178103573

_space_group_name_H-M_alt    "P 1"
_space_group_IT_number       1

loop_
  _space_group_symop_operation_xyz
  'x, y, z'

loop_
  _atom_site_type_symbol
  _atom_site_label
  _atom_site_symmetry_multiplicity
  _atom_site_fract_x
  _atom_site_fract_y
  _atom_site_fract_z
  _atom_site_occupancy
  N   N1        1.0  0.8989201623148694  0.5610654317765109  0.41638124132143317  1.0000
  C   C1        1.0  0.8266396599733937  0.5526508935927958  0.47880251694129927  1.0000
  C   C2        1.0  0.7367170327619685  0.5421820580908789  0.556463513835014  1.0000
  C   C3        1.0  0.6491433395491857  0.5505993754059253  0.480986668528131  1.0000
  C   C4        1.0  0.5616650433486349  0.5421820447349788  0.5564634937274064  1.0000
  C   C5        1.0  0.47162040773057806  0.5526509107381665  0.4788026110587011  1.0000
  N   N2        1.0  0.39924197693363217  0.5610653950157569  0.4163813466083335  1.0000
  C   C6        1.0  0.5617577502177195  0.5243515059098447  0.7075892274448243  1.0000
  C   C7        1.0  0.6493614013169845  0.5127584628523632  0.7843153466107695  1.0000
  C   C8        1.0  0.6494356224361634  0.4989160698731523  0.9472502721128548  1.0000
  F   F1        1.0  0.7308559431545617  0.42466523951402196  0.9985477596565885  1.0000
  F   F2        1.0  0.5689871286787267  0.42466520997565294  0.9985478588171612  1.0000
  F   F3        1.0  0.6485277469871933  0.6352508666986532  0.9995004534557722  1.0000
  C   C9        1.0  0.7368280776854677  0.5243514108849232  0.7075892466811451  1.0000
  H   H1        1.0  0.6490634182059861  0.5645645773682082  0.3639804005587415  1.0000
  H   H2        1.0  0.4936585501425997  0.5197869150082304  0.7652121620670922  1.0000
  H   H3        1.0  0.8049753042044071  0.519786833690419  0.7652121207115403  1.0000
  C   C10       1.0  0.1518796481500193  0.13765841490966024  0.4147133697995904  1.0000
  C   C11       1.0  0.1254026613361634  0.21948752352611933  0.28763028004234514  1.0000
  C   C12       1.0  0.09107192000010295  0.15217063275753562  0.1672789699329731  1.0000
  C   C13       1.0  0.08265279503188583  0.002106561556852514  0.17259335192145175  1.0000
  C   C14       1.0  0.11002506139751755  0.919039006266717  0.29677968402656174  1.0000
  C   C15       1.0  0.14629179326422345  0.9844615009165634  0.41806163300828625  1.0000
  C   C16       1.0  0.06331081019936735  0.23756528296142343  0.038664197439438386  1.0000
  N   N3        1.0  0.04099857884920888  0.3062070256460765  0.9352908647324157  1.0000
  H   H4        1.0  0.1705364180802349  0.2180877858646857  0.7685107343948416  1.0000
  H   H5        1.0  0.12934607725360925  0.33640149393644214  0.2833536358855422  1.0000
  H   H6        1.0  0.05575305354718042  0.9489974045618992  0.08009581137952093  1.0000
  H   H7        1.0  0.10495563176524962  0.802570062789698  0.2966528373935642  1.0000
  H   H8        1.0  0.1629508977894618  0.688209432404701  0.6551159314232426  1.0000
  C   C17       1.0  0.14916013390257432  0.5565637167558564  0.9931239296742146  1.0000
  C   C18       1.0  0.23784734641190053  0.5536988723060985  0.06671510045359774  1.0000
  C   C19       1.0  0.32489953821892326  0.5642373809144163  0.9913419930288412  1.0000
  C   C20       1.0  0.32547549748942123  0.5780313430664279  0.8397685450512706  1.0000
  C   C21       1.0  0.23739276695803313  0.5784646081484115  0.7653581580370954  1.0000
  C   C22       1.0  0.14901132517437898  0.565556201975598  0.8396510199582079  1.0000
  N   N4        1.0  0.41414843402745305  0.5902299894033007  0.7590285188475794  1.0000
  C   C23       1.0  0.5094663633826817  0.5903999233936146  0.8260174018586035  1.0000
  H   H9        1.0  0.3914247036869155  0.5629106392624019  0.05245776087497011  1.0000
  H   H10       1.0  0.924763914784336  0.4535405793415484  0.7437170007577434  1.0000
  H   H11       1.0  0.4109529721715237  0.5997856708752001  0.6461904676309289  1.0000
  H   H12       1.0  0.5151215088592478  0.6828920854178302  0.8958516461108923  1.0000
  H   H13       1.0  0.5219224642078639  0.4873350039509006  0.8911638295144412  1.0000
  H   H14       1.0  0.5659706892949197  0.6013000085963774  0.7411699412999497  1.0000
  Zn  Zn1       1.0  0.04330225458480475  0.5610616602501282  0.4163895643298068  1.0000
  Zn  Zn2       1.0  0.2548599427462408  0.5610575309496845  0.4163847292006835  1.0000
  C   C24       1.0  0.14907518269183329  0.5581124364015209  0.6796165694157403  1.0000
  C   C25       1.0  0.14908931281294122  0.5640085755000199  0.1531578727242171  1.0000
  C   C26       1.0  0.14734405321651933  0.8243366588751806  0.4116850230069855  1.0000
  C   C27       1.0  0.15082038151590618  0.2977826215499031  0.4210894891299346  1.0000
  O   O1        1.0  0.22935062623149002  0.5664992807821403  0.20686486616217148  1.0000
  O   O2        1.0  0.22938126672666903  0.5556175049514134  0.6259054870116212  1.0000
  O   O3        1.0  0.22798227523799255  0.7705969474054353  0.4095488735789299  1.0000
  O   O4        1.0  0.23074954548079663  0.35151984749578874  0.42322137156569783  1.0000
  O   O5        1.0  0.06741257965598373  0.7705993437069218  0.4095529219588676  1.0000
  O   O6        1.0  0.06881155972274366  0.5556216327322555  0.6259094653886705  1.0000
  O   O7        1.0  0.06878091992799829  0.5665033399100048  0.20686711141484593  1.0000
  O   O8        1.0  0.07017983922240938  0.3515238974588819  0.4232237248416122  1.0000
