data_image0
_chemical_formula_structural       NC5NC3OH4C7NH5C6OCH7Zn2C4O8
_chemical_formula_sum              "N3 C26 O10 H16 Zn2"
_cell_length_a       13.84702359539666
_cell_length_b       9.275154477615127
_cell_length_c       9.273891588657152
_cell_angle_alpha    86.29931945807607
_cell_angle_beta     89.66582561404928
_cell_angle_gamma    89.43463511314383

_space_group_name_H-M_alt    "P 1"
_space_group_IT_number       1

loop_
  _space_group_symop_operation_xyz
  'x, y, z'

loop_
  _atom_site_type_symbol
  _atom_site_label
  _atom_site_symmetry_multiplicity
  _atom_site_fract_x
  _atom_site_fract_y
  _atom_site_fract_z
  _atom_site_occupancy
  N   N1        1.0  0.9049482459544619  0.5636444899847044  0.4159404141447476  1.0000
  C   C1        1.0  0.83262205682153  0.5555456484012966  0.4789650553120573  1.0000
  C   C2        1.0  0.7425488673631849  0.5454608797750082  0.5574440130340248  1.0000
  C   C3        1.0  0.6551837864998403  0.5552034000723296  0.48162770606702576  1.0000
  C   C4        1.0  0.567105869054745  0.5455740723909481  0.556562734860062  1.0000
  C   C5        1.0  0.47748036100003544  0.5556047608865784  0.4785047377962306  1.0000
  N   N2        1.0  0.40543306375431937  0.5636686664026523  0.4157523312871777  1.0000
  C   C6        1.0  0.5663870301226226  0.5261731564904368  0.7075393197554447  1.0000
  C   C7        1.0  0.6533716883621296  0.5164215304775839  0.7834236181999166  1.0000
  C   C8        1.0  0.7417636339848315  0.5259888147852763  0.7089729999457777  1.0000
  O   O1        1.0  0.8284682794636282  0.5162205574418871  0.7849886288855088  1.0000
  H   H1        1.0  0.6557452605002408  0.5702336783286539  0.3646640396129883  1.0000
  H   H2        1.0  0.4986619006705734  0.5185943602123939  0.766516635532879  1.0000
  H   H3        1.0  0.6520325281760835  0.5014210707106388  0.9001560048810359  1.0000
  H   H4        1.0  0.8296846984990852  0.5021815148556121  0.8942384424266928  1.0000
  C   C9        1.0  0.15799618246628128  0.14025236698310836  0.41417729318828445  1.0000
  C   C10       1.0  0.13197081361740426  0.22228367608785685  0.2870959176633921  1.0000
  C   C11       1.0  0.09806475181938268  0.1551578276720884  0.16674971238391859  1.0000
  C   C12       1.0  0.08962363747859303  0.005084840491686781  0.17206760566388307  1.0000
  C   C13       1.0  0.11655506843695784  0.921819766136184  0.29625169889320446  1.0000
  C   C14       1.0  0.152394381082499  0.9870498218845705  0.4175278752668131  1.0000
  C   C15       1.0  0.07076038877396207  0.24075706877720562  0.03813703773466082  1.0000
  N   N3        1.0  0.04881526501265545  0.30956325016946784  0.9347653909351776  1.0000
  H   H5        1.0  0.17537771894396872  0.2201161545732926  0.7679905921707599  1.0000
  H   H6        1.0  0.13593100252169465  0.33920468462514  0.2828175129052488  1.0000
  H   H7        1.0  0.06305012130399534  0.9521224866863681  0.07957418198062527  1.0000
  H   H8        1.0  0.11148444664973534  0.8053507807988015  0.2961267507075518  1.0000
  H   H9        1.0  0.16820039770703277  0.6904189973757955  0.6545912860961677  1.0000
  C   C16       1.0  0.1568026093749615  0.559832568013688  0.9925615266874046  1.0000
  C   C17       1.0  0.2354864535887069  0.6207360103459939  0.06134646409854884  1.0000
  C   C18       1.0  0.3086212050115731  0.6924056455542495  0.9817926142877942  1.0000
  C   C19       1.0  0.3033329391491524  0.7035331386629846  0.8303979907951105  1.0000
  C   C20       1.0  0.22668377084983637  0.6417567665802657  0.7602666385903692  1.0000
  C   C21       1.0  0.15358792790400294  0.5674695439844226  0.8391435746070305  1.0000
  O   O2        1.0  0.3846794304960909  0.7515337372250753  0.05720442665675618  1.0000
  C   C22       1.0  0.46370275742357525  0.827418322285446  0.9903984039295298  1.0000
  H   H10       1.0  0.9276822517163454  0.47126510382537345  0.1033147102715275  1.0000
  H   H11       1.0  0.3585997301774171  0.7585933790370843  0.7656727927310173  1.0000
  H   H12       1.0  0.225855384496636  0.6491877246180127  0.6432151576611239  1.0000
  H   H13       1.0  0.0008366101205898832  0.5021251537439326  0.5634999817664412  1.0000
  H   H14       1.0  0.43713423864408285  0.9249869970282212  0.926398625686797  1.0000
  H   H15       1.0  0.504442982041819  0.7558624121680109  0.919687467446693  1.0000
  H   H16       1.0  0.51290953065283  0.861884200193509  0.0753597307348115  1.0000
  Zn  Zn1       1.0  0.04937734555137796  0.5636476818685745  0.41589443377631397  1.0000
  Zn  Zn2       1.0  0.2610039734713421  0.5636537830616704  0.4158100288322009  1.0000
  C   C23       1.0  0.15423143067266995  0.5602821015281421  0.6790987323170001  1.0000
  C   C24       1.0  0.15615218673428455  0.5670211839769354  0.15260587804625048  1.0000
  C   C25       1.0  0.1534700773578055  0.8269352406391832  0.4111504558358801  1.0000
  C   C26       1.0  0.15691347900350028  0.30036631327442453  0.42055422455173136  1.0000
  O   O3        1.0  0.23624514296025395  0.5694297743017838  0.20628616826040114  1.0000
  O   O4        1.0  0.23475819710224055  0.5578770504147639  0.6253539614583048  1.0000
  O   O5        1.0  0.23414230634707867  0.77320284602582  0.4089838387849832  1.0000
  O   O6        1.0  0.23686096184375033  0.3541039880278787  0.4226561829247202  1.0000
  O   O7        1.0  0.07352028496120622  0.7731974769017855  0.40904827970502194  1.0000
  O   O8        1.0  0.07413616454425331  0.5578734128816181  0.6254183323752105  1.0000
  O   O9        1.0  0.07562311737960671  0.5694260708906975  0.20634880594023786  1.0000
  O   O10       1.0  0.07623893591700504  0.3541002752790605  0.4227189286347872  1.0000
