data_image0
_chemical_formula_structural       NC5NC3OH4C7NH5C9H10Zn2C4O8
_chemical_formula_sum              "N3 C28 O9 H19 Zn2"
_cell_length_a       13.84702359539666
_cell_length_b       9.275154477615127
_cell_length_c       10.297187173949778
_cell_angle_alpha    85.79368962705624
_cell_angle_beta     89.95979786321969
_cell_angle_gamma    89.43463511314383

_space_group_name_H-M_alt    "P 1"
_space_group_IT_number       1

loop_
  _space_group_symop_operation_xyz
  'x, y, z'

loop_
  _atom_site_type_symbol
  _atom_site_label
  _atom_site_symmetry_multiplicity
  _atom_site_fract_x
  _atom_site_fract_y
  _atom_site_fract_z
  _atom_site_occupancy
  N   N1        1.0  0.8994122847945905  0.5777393064564644  0.5725072444277439  1.0000
  C   C1        1.0  0.8273063537685713  0.5690796774138074  0.629302594484163  1.0000
  C   C2        1.0  0.737507432062333  0.5582966102412625  0.7000247722439632  1.0000
  C   C3        1.0  0.649877388861459  0.5687137370633691  0.6317020715602002  1.0000
  C   C4        1.0  0.5620613538686503  0.5584176443893225  0.6992305987038958  1.0000
  C   C5        1.0  0.47216304923240987  0.5691428857619985  0.6288877742810766  1.0000
  N   N2        1.0  0.39989644528369805  0.5777651564183768  0.5723377514875633  1.0000
  C   C6        1.0  0.5618701469255604  0.5376733527252757  0.8352848122724077  1.0000
  C   C7        1.0  0.6491200051187711  0.5272465152057261  0.9036687842255087  1.0000
  C   C8        1.0  0.7372517612039936  0.537476254265671  0.8365767889781976  1.0000
  O   O1        1.0  0.8242220656094567  0.5270316168489197  0.9050791108546483  1.0000
  H   H1        1.0  0.6500300989994469  0.5847847472639043  0.5262989743413784  1.0000
  H   H2        1.0  0.4943511310139188  0.5295697817169751  0.8884328704434197  1.0000
  H   H3        1.0  0.648188800520088  0.5112073814007128  0.008863461127759707  1.0000
  H   H4        1.0  0.8258202901842298  0.5120204794720276  0.003530784497631337  1.0000
  C   C9        1.0  0.15245405956273372  0.15436287154294348  0.5709183885444031  1.0000
  C   C10       1.0  0.12598456754744936  0.23752493903645266  0.4563976062772408  1.0000
  C   C11       1.0  0.09165792061228095  0.1714699200841925  0.34794629691294854  1.0000
  C   C12       1.0  0.08323539121041224  0.02134961477859744  0.35273857505692785  1.0000
  C   C13       1.0  0.11060081993182225  0.9369795617856689  0.4646484394490906  1.0000
  C   C14       1.0  0.14686396777145433  0.0011305132733023832  0.5739378025151642  1.0000
  C   C15       1.0  0.06390408282621096  0.25821354493680926  0.23204556756162045  1.0000
  N   N3        1.0  0.04159769650456657  0.3279395177327742  0.13889106866809176  1.0000
  H   H5        1.0  0.17107210046140597  0.23107846094730422  0.8897611427138512  1.0000
  H   H6        1.0  0.12992980431055834  0.35448401642568794  0.4525420746721223  1.0000
  H   H7        1.0  0.05633862961902202  0.9692102589484188  0.2693871068262435  1.0000
  H   H8        1.0  0.1055297614764912  0.8205116882257482  0.4645358410143892  1.0000
  H   H9        1.0  0.16349847206557874  0.70239032034326  0.787570108137963  1.0000
  C   C16       1.0  0.14978702642699404  0.5776945708779397  0.19097469344021792  1.0000
  C   C17       1.0  0.051657705909147644  0.617290782542766  0.1876671432059136  1.0000
  C   C18       1.0  0.0013831643254365042  0.6375768470552915  0.06935618309948954  1.0000
  C   C19       1.0  0.0512773120923633  0.6174437238482984  0.9524450920548846  1.0000
  C   C20       1.0  0.14953100499946181  0.5777988186440959  0.9538814613902051  1.0000
  C   C21       1.0  0.19814423861126151  0.5581817175344456  0.07353637175111749  1.0000
  C   C22       1.0  0.8952492336518014  0.6804026849817644  0.07521100008531456  1.0000
  C   C23       1.0  0.8280221758490771  0.6224082161816121  0.9747552746579725  1.0000
  C   C24       1.0  0.8556891373917408  0.7814709237167465  0.9642132220483385  1.0000
  H   H10       1.0  0.1876019140607177  0.5624499649965343  0.5197866548254094  1.0000
  H   H11       1.0  0.013774476192017325  0.632577453931396  0.27781260681889175  1.0000
  H   H12       1.0  0.014445319198345349  0.6323025098496314  0.8599034244880648  1.0000
  H   H13       1.0  0.2738528857937137  0.5276316912416401  0.07536086650036333  1.0000
  H   H14       1.0  0.3351010234742646  0.5029023066167461  0.7493791454883629  1.0000
  H   H15       1.0  0.8611361919312439  0.6941688525577481  0.17134889992623983  1.0000
  H   H16       1.0  0.8611568893525527  0.5573344929369071  0.8999871706043645  1.0000
  H   H17       1.0  0.7530937258278313  0.6028958369406832  0.00982971488160289  1.0000
  H   H18       1.0  0.9056304920179233  0.8130189173755153  0.8830423250713172  1.0000
  H   H19       1.0  0.7969299439536381  0.8549241278164971  0.9931238814362101  1.0000
  Zn  Zn1       1.0  0.043841223699613296  0.5777429074694235  0.5724658087119263  1.0000
  Zn  Zn2       1.0  0.2554675566417268  0.5777497596899468  0.5723897462662129  1.0000
  C   C25       1.0  0.14961515349521132  0.5720353594936596  0.8096552634251781  1.0000
  C   C26       1.0  0.14969592574673518  0.5834591269258352  0.33520042470376965  1.0000
  C   C27       1.0  0.14791737628272367  0.8410726777193306  0.568190720701959  1.0000
  C   C28       1.0  0.1513936421582951  0.3144200764856242  0.5766650305302139  1.0000
  O   O2        1.0  0.22997648350255195  0.5853900749665957  0.383575009903697  1.0000
  O   O3        1.0  0.22995409304839654  0.5701085244072127  0.7612225707817031  1.0000
  O   O4        1.0  0.22858203339278885  0.787359561465172  0.566238249865715  1.0000
  O   O5        1.0  0.23134847090902505  0.3681390482068416  0.5785592334861815  1.0000
  O   O6        1.0  0.06796023721462574  0.7873536189517594  0.5662963215110871  1.0000
  O   O7        1.0  0.0693322854534717  0.5701043141075695  0.76128057934298  1.0000
  O   O8        1.0  0.06935467682766165  0.5853858142111966  0.3836314565392853  1.0000
  O   O9        1.0  0.0707266642655797  0.36813477715246745  0.5786157774744027  1.0000
