data_image0
_chemical_formula_structural       NC9NC3SH6C8NH7C8NH7Zn2C4O8
_chemical_formula_sum              "N4 C32 S1 H20 Zn2 O8"
_cell_length_a       16.77567553997237
_cell_length_b       9.274263428431858
_cell_length_c       9.274266800404106
_cell_angle_alpha    85.95096221083165
_cell_angle_beta     89.94189520236782
_cell_angle_gamma    91.51050711931723

_space_group_name_H-M_alt    "P 1"
_space_group_IT_number       1

loop_
  _space_group_symop_operation_xyz
  'x, y, z'

loop_
  _atom_site_type_symbol
  _atom_site_label
  _atom_site_symmetry_multiplicity
  _atom_site_fract_x
  _atom_site_fract_y
  _atom_site_fract_z
  _atom_site_occupancy
  N   N1        1.0  0.7670152654528585  0.5878661575415192  0.41682633071237496  1.0000
  C   C1        1.0  0.712396550473111  0.6430053830424411  0.46297173355901516  1.0000
  C   C2        1.0  0.6446139192623619  0.7114295127569253  0.5202346475998363  1.0000
  C   C3        1.0  0.6468829078774305  0.8100678574863289  0.6256896156312397  1.0000
  C   C4        1.0  0.5713849086814248  0.8586204611390852  0.6606413908043212  1.0000
  C   C5        1.0  0.5093572459934724  0.7980015570326058  0.5822939884012774  1.0000
  C   C6        1.0  0.4229881572581462  0.8270456374217291  0.5943233932046482  1.0000
  C   C7        1.0  0.3659193671708941  0.7381534288764466  0.5296732981822354  1.0000
  C   C8        1.0  0.2843916399416817  0.7649554389099249  0.54053105560724  1.0000
  C   C9        1.0  0.22664427819817926  0.67308726790186  0.4743337256963387  1.0000
  N   N2        1.0  0.1802324592130608  0.5992384255983918  0.4211208533193418  1.0000
  C   C10       1.0  0.2591057209917083  0.8809966396484895  0.6158598972279442  1.0000
  C   C11       1.0  0.3150861019526685  0.9700614673365138  0.6799975517714747  1.0000
  C   C12       1.0  0.3964571891831289  0.9436654072963191  0.6694665740609358  1.0000
  S   S1        1.0  0.5497435702594674  0.6837628946322618  0.4701249390731552  1.0000
  H   H1        1.0  0.7012804248892395  0.8458381137967251  0.676472199766893  1.0000
  H   H2        1.0  0.5632222932308236  0.9346543274719459  0.7421659537364063  1.0000
  H   H3        1.0  0.3844254985927744  0.6474092748757332  0.4715040052525519  1.0000
  H   H4        1.0  0.19621238876552985  0.9026797424082668  0.6248261940587128  1.0000
  H   H5        1.0  0.2953967646963615  0.06012367126663999  0.7378148066014059  1.0000
  H   H6        1.0  0.4381145130808938  0.01584182232134258  0.7191101919304784  1.0000
  C   C13       1.0  0.9711032261529416  0.16990176615306865  0.41925374655665126  1.0000
  C   C14       1.0  0.9613636507634691  0.2520129971022782  0.2874118147212641  1.0000
  C   C15       1.0  0.9594393492310604  0.18607713905436207  0.15684365258020816  1.0000
  C   C16       1.0  0.9678551717059531  0.03651176746235963  0.15489458351246976  1.0000
  C   C17       1.0  0.9754587119892392  0.9528305707958624  0.2858306827895363  1.0000
  C   C18       1.0  0.9761520136463946  0.017192088247144584  0.4187060449132878  1.0000
  C   C19       1.0  0.9645904629603356  0.9653873685532204  0.014213698328330528  1.0000
  C   C20       1.0  0.882000160082942  0.9239395955132705  0.9813179550932407  1.0000
  N   N3        1.0  0.8168133541655048  0.8912244758870325  0.9553635783896909  1.0000
  H   H7        1.0  0.03848247575043028  0.2524962321963611  0.752294262521735  1.0000
  H   H8        1.0  0.9569661291816729  0.36849330051247225  0.2850051835716705  1.0000
  H   H9        1.0  0.952130774664168  0.2520604161568576  0.056870082357627576  1.0000
  H   H10       1.0  0.9789096450208059  0.836421850560129  0.2839677727837684  1.0000
  H   H11       1.0  0.018404781405870096  0.7225397930580426  0.6448532599901944  1.0000
  H   H12       1.0  0.0014044592734880907  0.8673267736774278  0.02017479084319596  1.0000
  H   H13       1.0  0.9885228255730866  0.040191386950662045  0.9247556725030068  1.0000
  C   C21       1.0  0.975442654752519  0.5904430645885699  0.9956902575097408  1.0000
  C   C22       1.0  0.9284930264487948  0.48589226240496175  0.07642494989448068  1.0000
  C   C23       1.0  0.8767854594235208  0.39242864775767816  0.008055741784982692  1.0000
  C   C24       1.0  0.8703138592999664  0.40205450239920143  0.8572836739475913  1.0000
  C   C25       1.0  0.918337525818283  0.5031863798864997  0.7752563360805373  1.0000
  C   C26       1.0  0.9718125564887106  0.5966507414955207  0.8422694760208489  1.0000
  C   C27       1.0  0.8154055805328124  0.29979700371658674  0.7837025922992491  1.0000
  C   C28       1.0  0.8577961450757172  0.16909279197956414  0.7530214973717149  1.0000
  N   N4        1.0  0.8912579401885333  0.06593715630620081  0.728804278694759  1.0000
  H   H14       1.0  0.06516781620859069  0.9103726409874855  0.0758331363599789  1.0000
  H   H15       1.0  0.9304841712539907  0.4784766297830246  0.1934649595739466  1.0000
  H   H16       1.0  0.8411325376391496  0.31324968007804954  0.07298457833618155  1.0000
  H   H17       1.0  0.9152520464311406  0.5063926440385973  0.6583309411237752  1.0000
  H   H18       1.0  0.035101997683083974  0.8093268656893191  0.5464378118235174  1.0000
  H   H19       1.0  0.7929776707797509  0.35199572279029434  0.6806630431701213  1.0000
  H   H20       1.0  0.7629352546747306  0.26871585982894547  0.85333983351609  1.0000
  Zn  Zn1       1.0  0.8862607657810395  0.5911441577834203  0.4180739724795757  1.0000
  Zn  Zn2       1.0  0.060986833033654264  0.595948743225726  0.41988505660224806  1.0000
  C   C29       1.0  0.972462715122292  0.5897300354560735  0.6822516028725956  1.0000
  C   C30       1.0  0.9747868019356146  0.5973647393471522  0.155707586287279  1.0000
  C   C31       1.0  0.9752182069486439  0.856993913387951  0.4130654773876785  1.0000
  C   C32       1.0  0.9720312398297142  0.33009912704845634  0.42489378912412534  1.0000
  O   O1        1.0  0.04087428616511568  0.6015047378692475  0.21009816465600606  1.0000
  O   O2        1.0  0.03898826834561531  0.5892355147287469  0.6292351812110709  1.0000
  O   O3        1.0  0.041212462557924  0.8050544625829537  0.4118654701105721  1.0000
  O   O4        1.0  0.03865003285556412  0.3856857979032742  0.42746776705357775  1.0000
  O   O5        1.0  0.9085975063337404  0.8014071014678181  0.41049126140262876  1.0000
  O   O6        1.0  0.9063733227755905  0.5855898863423752  0.627860894525581  1.0000
  O   O7        1.0  0.9082593477796814  0.5978590465031675  0.20872214497108676  1.0000
  O   O8        1.0  0.9060350939419832  0.38204009701090635  0.4260918554459687  1.0000
