data_image0
_chemical_formula_structural       NC7OC2OC6NC2H14C6H6C6H6Zn2C4O8
_chemical_formula_sum              "N2 C33 O10 H26 Zn2"
_cell_length_a       23.32237014671696
_cell_length_b       10.302277161923591
_cell_length_c       10.68112160042829
_cell_angle_alpha    85.56070482122752
_cell_angle_beta     88.62255012075855
_cell_angle_gamma    90.3962960834624

_space_group_name_H-M_alt    "P 1"
_space_group_IT_number       1

loop_
  _space_group_symop_operation_xyz
  'x, y, z'

loop_
  _atom_site_type_symbol
  _atom_site_label
  _atom_site_symmetry_multiplicity
  _atom_site_fract_x
  _atom_site_fract_y
  _atom_site_fract_z
  _atom_site_occupancy
  N   N1        1.0  0.5400778984362424  0.43176124450726033  0.5895252711213499  1.0000
  C   C1        1.0  0.4915872255250668  0.41246393939747095  0.5785113569962932  1.0000
  C   C2        1.0  0.431270175401987  0.3884605636452202  0.5648106198167357  1.0000
  C   C3        1.0  0.39572457694004676  0.3613587493266721  0.6712348131062711  1.0000
  C   C4        1.0  0.3371395523624543  0.3380528005113046  0.6578734488969289  1.0000
  C   C5        1.0  0.313445554286469  0.34153599961861425  0.5384380611209034  1.0000
  C   C6        1.0  0.3493771845358272  0.36883994244218343  0.4315891365959974  1.0000
  C   C7        1.0  0.407975761209496  0.3921452572278284  0.44501192339231554  1.0000
  O   O1        1.0  0.2544459904476909  0.31751562828128366  0.5300435898153453  1.0000
  C   C8        1.0  0.2246365331602836  0.31810856937736354  0.41507364587248397  1.0000
  C   C9        1.0  0.1612723026198696  0.2880533798040932  0.44320374740277635  1.0000
  O   O2        1.0  0.1314697288736315  0.28069217871556007  0.3299745187314751  1.0000
  C   C10       1.0  0.10601974032345  0.4011979206126649  0.29182406606378386  1.0000
  C   C11       1.0  0.047399856570197  0.4106564763020635  0.3524384625248056  1.0000
  C   C12       1.0  0.002907358886347702  0.3278847216049523  0.3204275304755051  1.0000
  C   C13       1.0  0.9485506647851332  0.335001738201719  0.3775146342862458  1.0000
  C   C14       1.0  0.938248830296363  0.4246692793103282  0.4673583248748863  1.0000
  C   C15       1.0  0.8823021975447596  0.43190564969175216  0.5261850720751704  1.0000
  N   N2        1.0  0.837324235420499  0.4377230174914476  0.5734795344581194  1.0000
  C   C16       1.0  0.9825436274725637  0.5071290061292868  0.4999789895292537  1.0000
  C   C17       1.0  0.0369120300209978  0.5000967410982573  0.44291718666296154  1.0000
  H   H1        1.0  0.41326082051213436  0.3582437476052323  0.7644250716573452  1.0000
  H   H2        1.0  0.3099811953537832  0.31717949723445304  0.7407219960008717  1.0000
  H   H3        1.0  0.3324996320283065  0.37226738327566444  0.33798781753407825  1.0000
  H   H4        1.0  0.4350947051176901  0.4130219947768559  0.3620050262691199  1.0000
  H   H5        1.0  0.22925131024132298  0.4153820370203161  0.3630075516263096  1.0000
  H   H6        1.0  0.24280559396482906  0.24278124458145528  0.35678202248045165  1.0000
  H   H7        1.0  0.1577920462896218  0.19141522822221232  0.49676792043350865  1.0000
  H   H8        1.0  0.1428038105783319  0.3599165129681883  0.5055500869536655  1.0000
  H   H9        1.0  0.1337001602516945  0.4863433188092403  0.3091719878589696  1.0000
  H   H10       1.0  0.10105171376652441  0.4055932280473362  0.18844147638590902  1.0000
  H   H11       1.0  0.0103832786144291  0.25785949403428354  0.25135447947954925  1.0000
  H   H12       1.0  0.9146286456367088  0.27056885683038284  0.35173701873920127  1.0000
  H   H13       1.0  0.9750786765429649  0.5766762115115556  0.5695541644553879  1.0000
  H   H14       1.0  0.07077471234122251  0.5642089585484047  0.4694486828445723  1.0000
  C   C18       1.0  0.6887038172710159  0.05346905233566534  0.5815076754315567  1.0000
  C   C19       1.0  0.6617323848645175  0.9319667033413396  0.610768239499891  1.0000
  C   C20       1.0  0.6887037896579112  0.816005285944796  0.5815077081228874  1.0000
  C   C21       1.0  0.7432452734298671  0.822838100890046  0.522337105030731  1.0000
  C   C22       1.0  0.770221899238317  0.9431104826479384  0.4930708322965049  1.0000
  C   C23       1.0  0.743245264978528  0.05784104412133929  0.5223370204730333  1.0000
  H   H15       1.0  0.5858512056868477  0.2524200440585955  0.6930897807717145  1.0000
  H   H16       1.0  0.6197100040807445  0.9276503150505303  0.6563570817122133  1.0000
  H   H17       1.0  0.5858513967013966  0.595924538263112  0.6930907497945076  1.0000
  H   H18       1.0  0.7650888479422836  0.7352894537544277  0.4986396330303984  1.0000
  H   H19       1.0  0.8122269514729739  0.9474252538923829  0.44750067701909013  1.0000
  H   H20       1.0  0.7650888560772873  0.14987710380265473  0.4986394983086151  1.0000
  C   C24       1.0  0.6887038240655805  0.43473715380283845  0.21376245151653706  1.0000
  C   C25       1.0  0.647650796235638  0.3617039416119834  0.15455605038086606  1.0000
  C   C26       1.0  0.647650760425463  0.36170402414552383  0.02367391236104921  1.0000
  C   C27       1.0  0.6887037789762398  0.4347372165438004  0.9492528896268575  1.0000
  C   C28       1.0  0.7297229228235804  0.5077099088147945  0.008460539509919542  1.0000
  C   C29       1.0  0.7297229154853436  0.5077098885347824  0.13935283856909142  1.0000
  H   H21       1.0  0.7302193176508232  0.5085937906229563  0.5047791430265187  1.0000
  H   H22       1.0  0.6154714949662496  0.3044570582367274  0.2093299586857964  1.0000
  H   H23       1.0  0.6154714829875003  0.30445711911232953  0.9808259301068918  1.0000
  H   H24       1.0  0.7619064263030367  0.5649643350893978  0.9537307397328529  1.0000
  H   H25       1.0  0.7619063974048633  0.5649642889951247  0.18215510877721508  1.0000
  H   H26       1.0  0.7302194966607906  0.5085933418604369  0.6428501076499109  1.0000
  Zn  Zn1       1.0  0.6258567727206237  0.43347819866843906  0.5849020547364479  1.0000
  Zn  Zn2       1.0  0.7515453583873298  0.4359954085014575  0.578113026077707  1.0000
  C   C30       1.0  0.6887025232245135  0.4295647768803164  0.8102295322473838  1.0000
  C   C31       1.0  0.6887009803988579  0.43991049598537413  0.3527855973437608  1.0000
  C   C32       1.0  0.6887008556937867  0.6718696494767264  0.5765175438597854  1.0000
  C   C33       1.0  0.688702605040877  0.19760406261941332  0.586497654813172  1.0000
  O   O3        1.0  0.736398189267361  0.4425963205758883  0.39686663408075745  1.0000
  O   O4        1.0  0.7364000426411618  0.4287884768323953  0.7609954193547324  1.0000
  O   O5        1.0  0.7363980530949111  0.62445271293994  0.5722713699122912  1.0000
  O   O6        1.0  0.7364001359246146  0.24693209289727475  0.5855905919436926  1.0000
  O   O7        1.0  0.6410019522919932  0.6225415134150355  0.5774244911806372  1.0000
  O   O8        1.0  0.6410039418356057  0.4268788372194545  0.7661484738514411  1.0000
  O   O9        1.0  0.6410020885000042  0.44068663571904537  0.40201818295281844  1.0000
  O   O10       1.0  0.6410040351549091  0.24502239875391374  0.5907422347054347  1.0000
