data_image0
_chemical_formula_structural       NC9NC3OH6C8H10C6H4Zn2C4O8
_chemical_formula_sum              "N2 C30 O9 H20 Zn2"
_cell_length_a       15.78231758774541
_cell_length_b       9.275653711864159
_cell_length_c       10.681121600428288
_cell_angle_alpha    85.7433101150016
_cell_angle_beta     90.08384876913414
_cell_angle_gamma    89.08352321082864

_space_group_name_H-M_alt    "P 1"
_space_group_IT_number       1

loop_
  _space_group_symop_operation_xyz
  'x, y, z'

loop_
  _atom_site_type_symbol
  _atom_site_label
  _atom_site_symmetry_multiplicity
  _atom_site_fract_x
  _atom_site_fract_y
  _atom_site_fract_z
  _atom_site_occupancy
  N   N1        1.0  0.7890450505188713  0.5690875864067055  0.6253307919053481  1.0000
  C   C1        1.0  0.7410257346027896  0.4779763923922223  0.6482990297834568  1.0000
  C   C2        1.0  0.6814078192395941  0.3648852540428115  0.6768085337725915  1.0000
  C   C3        1.0  0.7018698438656504  0.22282455992838177  0.7125444922055884  1.0000
  C   C4        1.0  0.6255267026755318  0.15397638646796552  0.7299354243959055  1.0000
  C   C5        1.0  0.5631543749324915  0.2591175588167509  0.703526530739243  1.0000
  C   C6        1.0  0.4701727854456567  0.23967856299184098  0.7084976194599867  1.0000
  C   C7        1.0  0.4157569455683214  0.35886926039737754  0.6784006922377956  1.0000
  C   C8        1.0  0.3276401585995175  0.3429297498600812  0.6824837706947233  1.0000
  C   C9        1.0  0.2725083058420449  0.465588362436039  0.6515032059342076  1.0000
  N   N2        1.0  0.2281952800422863  0.5641900618339241  0.6265975873588747  1.0000
  C   C10       1.0  0.2932589225880165  0.20762214328522435  0.7167105307301077  1.0000
  C   C11       1.0  0.3467424432674416  0.08867786929655952  0.7467494348411036  1.0000
  C   C12       1.0  0.43467603215366657  0.10417949591147657  0.7427772986420511  1.0000
  O   O1        1.0  0.5989115855048526  0.3837235150190188  0.6721345815899251  1.0000
  H   H1        1.0  0.7645998493943323  0.17491659751312752  0.7245469063044194  1.0000
  H   H2        1.0  0.6174316077078746  0.04077192954895438  0.7584271528149616  1.0000
  H   H3        1.0  0.44176988112989884  0.4641625703207757  0.6517616511108493  1.0000
  H   H4        1.0  0.2252186019412608  0.19412220617988796  0.7201666392480326  1.0000
  H   H5        1.0  0.3199951411437398  0.9841043990845645  0.7732067661205307  1.0000
  H   H6        1.0  0.47429263874011657  0.00996725445852142  0.7665781813136534  1.0000
  C   C13       1.0  0.011002462452963435  0.14322312976726237  0.624802434275199  1.0000
  C   C14       1.0  0.9911155798713703  0.2268508687375332  0.513058569195074  1.0000
  C   C15       1.0  0.9635884213883168  0.1619308534401407  0.4061392013168812  1.0000
  C   C16       1.0  0.9572086140693956  0.011408283767618595  0.4101221797081249  1.0000
  C   C17       1.0  0.9780099366605546  0.9265828813690729  0.5194553041520309  1.0000
  C   C18       1.0  0.006246006901533084  0.9900433184917692  0.6271367258527417  1.0000
  C   C19       1.0  0.943741314200572  0.2529403293752093  0.28676208480612764  1.0000
  C   C20       1.0  0.02300679818321914  0.2738952895238389  0.2064037219699306  1.0000
  H   H7        1.0  0.0879225906046146  0.40690918225926603  0.7985982282449161  1.0000
  H   H8        1.0  0.9951728753522587  0.343624307371343  0.5096964542216482  1.0000
  H   H9        1.0  0.9369174201546442  0.9593937384032651  0.32792189203454236  1.0000
  H   H10       1.0  0.9740913911997846  0.8101554637938047  0.5186795867119061  1.0000
  H   H11       1.0  0.0142196810215922  0.6908471817842355  0.8336678722817201  1.0000
  H   H12       1.0  0.8943416726760504  0.20061085616504704  0.2321647204391814  1.0000
  H   H13       1.0  0.9180249275165195  0.36039052022862017  0.30888423253524877  1.0000
  H   H14       1.0  0.07238796714799033  0.32954103847217464  0.2582474768301861  1.0000
  H   H15       1.0  0.04844136560434071  0.16770513844341517  0.18070869426963254  1.0000
  H   H16       1.0  0.00702554762533913  0.34113255853243696  0.11895403520516856  1.0000
  C   C21       1.0  0.008624257655064138  0.5666332221147061  0.25822436462386467  1.0000
  C   C22       1.0  0.9484231453469707  0.4871183579139404  0.19640586358053166  1.0000
  C   C23       1.0  0.948423091921908  0.4871184509576376  0.06552372372987936  1.0000
  C   C24       1.0  0.00862419064330865  0.5666332935376936  0.9937148003028842  1.0000
  C   C25       1.0  0.06877561619295218  0.6460822614767636  0.05553239340586713  1.0000
  C   C26       1.0  0.06877560547706024  0.646082239239533  0.18642469197600686  1.0000
  H   H17       1.0  0.9012346715333035  0.42479084927647875  0.24913228465240864  1.0000
  H   H18       1.0  0.9012346534547424  0.4247909173449018  0.020628255562916923  1.0000
  H   H19       1.0  0.115970251805894  0.7084179839044883  0.002850348443463655  1.0000
  H   H20       1.0  0.11597020939578567  0.7084179338351579  0.23127471566538094  1.0000
  Zn  Zn1       1.0  0.9157743385796696  0.5676704151688265  0.625703576868726  1.0000
  Zn  Zn2       1.0  0.10146602958768873  0.5655954649876298  0.6262350070270817  1.0000
  C   C27       1.0  0.008654599084370716  0.5608891869732486  0.8546755357731  1.0000
  C   C28       1.0  0.008587786611877531  0.5723784898057205  0.3972631818538294  1.0000
  C   C29       1.0  0.007140723643457965  0.8299763536871559  0.6217052041825342  1.0000
  C   C30       1.0  0.01010160841939455  0.3032895914705751  0.6302335752529844  1.0000
  O   O2        1.0  0.07904461092590975  0.5735129309448941  0.4441275366870996  1.0000
  O   O3        1.0  0.07913347774183621  0.5581788189186028  0.8082141606440513  1.0000
  O   O4        1.0  0.07791005422144674  0.775470119726813  0.6200889709949489  1.0000
  O   O5        1.0  0.08026797102437294  0.35622164115920807  0.632252632287152  1.0000
  O   O6        1.0  0.9369723337755153  0.7770442397068966  0.6196859514207216  1.0000
  O   O7        1.0  0.9381957475618309  0.5597546712295727  0.8078110790733014  1.0000
  O   O8        1.0  0.9381068810845595  0.5750887330096222  0.44372294935542084  1.0000
  O   O9        1.0  0.9393302412374794  0.35779743291106025  0.6318481388165897  1.0000
