data_image0
_chemical_formula_structural       NC10NC2SH6C10FC2H9C10SH8Zn2C4O8
_chemical_formula_sum              "N2 C38 S2 H23 F1 Zn2 O8"
_cell_length_a       18.726821288119407
_cell_length_b       10.299764965457928
_cell_length_c       10.297424231287907
_cell_angle_alpha    85.58097258035926
_cell_angle_beta     90.00908602816145
_cell_angle_gamma    90.73449845769436

_space_group_name_H-M_alt    "P 1"
_space_group_IT_number       1

loop_
  _space_group_symop_operation_xyz
  'x, y, z'

loop_
  _atom_site_type_symbol
  _atom_site_label
  _atom_site_symmetry_multiplicity
  _atom_site_fract_x
  _atom_site_fract_y
  _atom_site_fract_z
  _atom_site_occupancy
  N   N1        1.0  0.6725180354978505  0.43620987204308076  0.5660030700833814  1.0000
  C   C1        1.0  0.6132600667272686  0.4028576314137231  0.5688238325593498  1.0000
  C   C2        1.0  0.5397209839080813  0.36147209860012364  0.5723236566436702  1.0000
  C   C3        1.0  0.5153830906284657  0.23349962037597763  0.5820633263756341  1.0000
  C   C4        1.0  0.44075723027160607  0.22246065565932074  0.5829440509160144  1.0000
  C   C5        1.0  0.406145723027152  0.34230685447020637  0.5739308316107905  1.0000
  C   C6        1.0  0.3277928810649249  0.36354185007296347  0.5721978605043336  1.0000
  C   C7        1.0  0.2793866446547952  0.26020217222940367  0.604277588170586  1.0000
  C   C8        1.0  0.20577082765935922  0.2813418722489103  0.6024055203652625  1.0000
  C   C9        1.0  0.1793598431473389  0.4057932106893148  0.5686681422045685  1.0000
  C   C10       1.0  0.1035567445034986  0.4273576395861294  0.5668029522669595  1.0000
  N   N2        1.0  0.0426176121154045  0.44469364442113896  0.5653032913116187  1.0000
  C   C11       1.0  0.22686105161224504  0.509254512481883  0.5369469328682432  1.0000
  C   C12       1.0  0.3004947057089268  0.4884437398439579  0.538785131192185  1.0000
  S   S1        1.0  0.4694613606312469  0.46105448933718424  0.5646079916569631  1.0000
  H   H1        1.0  0.5502950627394974  0.15031135520022443  0.5879725267803815  1.0000
  H   H2        1.0  0.4136604294671491  0.12892841481220896  0.588674256661063  1.0000
  H   H3        1.0  0.2978875006940654  0.16307223927706294  0.6321511743828594  1.0000
  H   H4        1.0  0.1694570673424607  0.20057113893354186  0.6275862433164947  1.0000
  H   H5        1.0  0.2070056094351125  0.6060864890084938  0.5106749953599927  1.0000
  H   H6        1.0  0.3358529684037787  0.570345027040835  0.5132182925246109  1.0000
  C   C13       1.0  0.8575038870146683  0.059084732361169186  0.565651309512549  1.0000
  C   C14       1.0  0.86213385085886  0.06871260903609566  0.42914236309588955  1.0000
  C   C15       1.0  0.8645484966562399  0.9564534786555605  0.35997807867766696  1.0000
  C   C16       1.0  0.8622700874240445  0.8334281352787192  0.42915758084998745  1.0000
  C   C17       1.0  0.8576386038352045  0.821808906349822  0.5656662774920056  1.0000
  C   C18       1.0  0.8552818282422168  0.9351945512550769  0.6331484822991273  1.0000
  C   C19       1.0  0.8694472970510747  0.9676925806543214  0.21556075188204105  1.0000
  C   C20       1.0  0.9148191475556195  0.8858906502040075  0.1507798093505328  1.0000
  C   C21       1.0  0.9193482768654196  0.8967002618765124  0.014832595031708749  1.0000
  C   C22       1.0  0.878722913851456  0.9889731595668295  0.942106451109754  1.0000
  F   F1        1.0  0.8831939197556085  0.99923073558807  0.8102952631228876  1.0000
  C   C23       1.0  0.8334879777913512  0.07067053503962173  0.005273904579382597  1.0000
  C   C24       1.0  0.8287950845956322  0.06032251516164955  0.14120293557191865  1.0000
  H   H7        1.0  0.8557072904496745  0.3828690198331848  0.6176668147301492  1.0000
  H   H8        1.0  0.8648593944180194  0.16377123385320227  0.376393405128288  1.0000
  H   H9        1.0  0.8631303420629464  0.7465958396974702  0.37620092247675707  1.0000
  H   H10       1.0  0.8517094018307664  0.9269990312016662  0.738458561836896  1.0000
  H   H11       1.0  0.8559056059022631  0.4899280396568483  0.6176889944681025  1.0000
  H   H12       1.0  0.9474497354816348  0.814804886695365  0.20527944968192813  1.0000
  H   H13       1.0  0.9545548252535329  0.8336157632349331  0.9659525789504557  1.0000
  H   H14       1.0  0.8018499128275409  0.14194190638072432  0.9489522697191797  1.0000
  H   H15       1.0  0.7927265888350051  0.12352081422328999  0.18805449240281913  1.0000
  C   C25       1.0  0.8575231624488318  0.4403179797001564  0.18422077880619625  1.0000
  C   C26       1.0  0.9287108709507939  0.4850643775288224  0.1800505324466386  1.0000
  C   C27       1.0  0.9650649924172183  0.507653341987091  0.06077357846117537  1.0000
  C   C28       1.0  0.9288323951938763  0.485359972225171  0.9448227745435127  1.0000
  C   C29       1.0  0.8576192922458313  0.440575610616863  0.9470968283520738  1.0000
  C   C30       1.0  0.8224304000102487  0.4182302583235389  0.06722961675130956  1.0000
  C   C31       1.0  0.040393462404168856  0.5550365645691453  0.05640803846811538  1.0000
  C   C32       1.0  0.08805497024570341  0.5552277721459846  0.16063617716733125  1.0000
  C   C33       1.0  0.1556991995443182  0.6061345357624885  0.12584213459386606  1.0000
  C   C34       1.0  0.1623359623791727  0.6464200933136461  0.9946906312278293  1.0000
  S   S2        1.0  0.08392392140505023  0.6183657574029938  0.922232692658504  1.0000
  H   H16       1.0  0.8299124461762698  0.4234002601171234  0.5133489331112726  1.0000
  H   H17       1.0  0.9553190033322393  0.5036778111356679  0.27003075818153044  1.0000
  H   H18       1.0  0.9561927926195323  0.5019045920739755  0.8523333400518706  1.0000
  H   H19       1.0  0.7675373003909293  0.38370868771844346  0.06976363898095816  1.0000
  H   H20       1.0  0.723170362179912  0.35593209748297605  0.7441456417486464  1.0000
  H   H21       1.0  0.0754538438083161  0.5184993323784606  0.2592313789192553  1.0000
  H   H22       1.0  0.19891199891511313  0.6129665524310888  0.1948180463268447  1.0000
  H   H23       1.0  0.2098234696222352  0.6882112600854359  0.9475708552503891  1.0000
  Zn  Zn1       1.0  0.7793207801256677  0.4386546207183952  0.5658086321445368  1.0000
  Zn  Zn2       1.0  0.9358148573104448  0.4422382358774136  0.5655083762670761  1.0000
  C   C35       1.0  0.8575986304750493  0.43535326135704333  0.8028968092718188  1.0000
  C   C36       1.0  0.8575387161769765  0.44554127302648544  0.328420323382725  1.0000
  C   C37       1.0  0.8576087986936801  0.6776359686960027  0.5604873503540542  1.0000
  C   C38       1.0  0.8575284942910265  0.20325700419301446  0.5708298516234913  1.0000
  O   O1        1.0  0.9169326218655155  0.4486485555447251  0.37670106216978794  1.0000
  O   O2        1.0  0.9169801081231462  0.4349648799812061  0.7543878092882044  1.0000
  O   O3        1.0  0.9169875186706101  0.6306112123636995  0.5586404576875417  1.0000
  O   O4        1.0  0.9169251579065896  0.25300223119666737  0.5724483164807777  1.0000
  O   O5        1.0  0.7982104261257743  0.6278906241776403  0.5588686920264654  1.0000
  O   O6        1.0  0.7982030158418805  0.43224585206815747  0.7546159743997578  1.0000
  O   O7        1.0  0.7981555294269242  0.4459294818495225  0.37692766559675484  1.0000
  O   O8        1.0  0.7981480654757118  0.2502831482455281  0.572675017293048  1.0000
