data_image0
_chemical_formula_structural       NC9NC3OCH8C12NH10C12NCOCH13Zn2C4O8
_chemical_formula_sum              "N4 C43 O10 H31 Zn2"
_cell_length_a       17.728193572023454
_cell_length_b       10.299770795358612
_cell_length_c       10.299158637457994
_cell_angle_alpha    85.57628442395506
_cell_angle_beta     90.68674526026633
_cell_angle_gamma    88.47103896228896

_space_group_name_H-M_alt    "P 1"
_space_group_IT_number       1

loop_
  _space_group_symop_operation_xyz
  'x, y, z'

loop_
  _atom_site_type_symbol
  _atom_site_label
  _atom_site_symmetry_multiplicity
  _atom_site_fract_x
  _atom_site_fract_y
  _atom_site_fract_z
  _atom_site_occupancy
  N   N1        1.0  0.7111119434790317  0.3864002786565539  0.5850791375252253  1.0000
  C   C1        1.0  0.6504876167576089  0.3489773796953617  0.5980869135271056  1.0000
  C   C2        1.0  0.57501868462178  0.30245572887751226  0.6142762539619595  1.0000
  C   C3        1.0  0.5630858187370857  0.17442270207749777  0.6237048302738479  1.0000
  C   C4        1.0  0.48635991742130363  0.12497715798874355  0.63865883129158  1.0000
  C   C5        1.0  0.4282296648897037  0.20765208040544048  0.6561237169369714  1.0000
  C   C6        1.0  0.3501653550820618  0.16261241404527604  0.6778610911919924  1.0000
  C   C7        1.0  0.2888524458142476  0.24806743603224593  0.6423935780099124  1.0000
  C   C8        1.0  0.21456383927694292  0.2087723423985264  0.6625443674917033  1.0000
  C   C9        1.0  0.1522732083723796  0.2967634086266826  0.6250023176033066  1.0000
  N   N2        1.0  0.10220494775156613  0.3674997004453338  0.5948220582814547  1.0000
  C   C10       1.0  0.20095645391751366  0.08390274735129875  0.7192167776228062  1.0000
  C   C11       1.0  0.2613705172442719  0.9987657683240154  0.7560928513492815  1.0000
  C   C12       1.0  0.3355553406854172  0.03757128738912541  0.7360716784117132  1.0000
  O   O1        1.0  0.4416205871256134  0.34143555477539367  0.654819907727964  1.0000
  C   C13       1.0  0.5093686840859717  0.39879808325256283  0.6062062309402116  1.0000
  H   H1        1.0  0.609995502325677  0.10496211685739198  0.6216079477560996  1.0000
  H   H2        1.0  0.4786813064494644  0.021328551238118054  0.6366826841929007  1.0000
  H   H3        1.0  0.2987764231631752  0.34487599651464707  0.5979604497305919  1.0000
  H   H4        1.0  0.14373091098604923  0.05262052096760206  0.7353590628429838  1.0000
  H   H5        1.0  0.25070992498506484  0.9026162276638288  0.8009870804546313  1.0000
  H   H6        1.0  0.3810632029192134  0.9703529800069832  0.7684964276564099  1.0000
  H   H7        1.0  0.4999274139713745  0.43469081475138427  0.5026765436088863  1.0000
  H   H8        1.0  0.5222619247680594  0.483202775390377  0.6627839834598039  1.0000
  C   C14       1.0  0.9065936804888401  0.9955846012691001  0.5899885795959505  1.0000
  C   C15       1.0  0.8847151101772001  0.0057712207142748195  0.45803180664036175  1.0000
  C   C16       1.0  0.8736982901399784  0.8937933456857838  0.39113489842926596  1.0000
  C   C17       1.0  0.8848532479543079  0.7704829074429199  0.45796669439379767  1.0000
  C   C18       1.0  0.906730452523154  0.7583050623801004  0.5899239838788726  1.0000
  C   C19       1.0  0.9174785231218451  0.8714163195673934  0.6551958672957385  1.0000
  C   C20       1.0  0.8505523629794587  0.9056235870235371  0.25153229978513436  1.0000
  C   C21       1.0  0.7956115507993328  0.9994408246908876  0.2049759944673064  1.0000
  C   C22       1.0  0.7738589619092037  0.010444658395873944  0.07358177383409403  1.0000
  C   C23       1.0  0.8066354681393798  0.9280698677925524  0.9866534419208359  1.0000
  C   C24       1.0  0.8613953588355392  0.8344591435965175  0.03231467229248275  1.0000
  C   C25       1.0  0.8832084054567437  0.8231963518566918  0.16368042573212938  1.0000
  N   N3        1.0  0.7843532341524796  0.9394583084739857  0.8522614910841205  1.0000
  H   H9        1.0  0.9148983314314375  0.3191568431352384  0.6402865606493673  1.0000
  H   H10       1.0  0.8771911424147514  0.10102217340752787  0.4064916079272132  1.0000
  H   H11       1.0  0.8754348241904452  0.6838914965673556  0.4073194136461247  1.0000
  H   H12       1.0  0.9343562754431761  0.8627897956937128  0.7569946588547678  1.0000
  H   H13       1.0  0.9150994936734078  0.4262107072255661  0.6401919472847069  1.0000
  H   H14       1.0  0.7687548618724616  0.06317299909644115  0.2705108391972666  1.0000
  H   H15       1.0  0.731319149815219  0.08297015230695903  0.039610117328914514  1.0000
  H   H16       1.0  0.9263270022425137  0.7511526546295884  0.19622694378691752  1.0000
  H   H17       1.0  0.8084653541355233  0.8784745752221664  0.7867218859979611  1.0000
  H   H18       1.0  0.7435799328799493  0.008958054010159477  0.8173106637300855  1.0000
  C   C26       1.0  0.9067327949960212  0.3768034414836308  0.20858498769911749  1.0000
  C   C27       1.0  0.908510673428514  0.5134206391589362  0.19730355452265957  1.0000
  C   C28       1.0  0.909352879147415  0.5828301668692308  0.0744245921763782  1.0000
  C   C29       1.0  0.9083662760832161  0.5137874869096635  0.9619884466437303  1.0000
  C   C30       1.0  0.9065913449479172  0.3770862379971449  0.9713276545676415  1.0000
  C   C31       1.0  0.9057888324792519  0.30943459909450555  0.09501409492102408  1.0000
  C   C32       1.0  0.9112345607187999  0.727354354089316  0.06346378129365782  1.0000
  C   C33       1.0  0.957564478634839  0.7929491751653162  0.14717929255841344  1.0000
  C   C34       1.0  0.9593413903540865  0.9289537603344096  0.13673388739267023  1.0000
  C   C35       1.0  0.9153021928551146  0.0020673610777661743  0.041480900634137896  1.0000
  C   C36       1.0  0.8680736496343193  0.9368763560148008  0.9595260500490493  1.0000
  C   C37       1.0  0.8663277248886064  0.800898182740624  0.9697112378195722  1.0000
  N   N4        1.0  0.9150391208925468  0.1421259031430604  0.030226491070168386  1.0000
  C   C38       1.0  0.9797084968001418  0.21798839798532788  0.05506206545202641  1.0000
  O   O2        1.0  0.04476370334060276  0.165431822520822  0.06520325910849034  1.0000
  C   C39       1.0  0.9708822612224084  0.36222994837166267  0.05943193221195075  1.0000
  H   H19       1.0  0.9060725891065519  0.32425161914789213  0.5404006719434484  1.0000
  H   H20       1.0  0.9081902603284859  0.5662533163428997  0.2842417215231774  1.0000
  H   H21       1.0  0.9100118161530714  0.5667215093925089  0.8670531085623314  1.0000
  H   H22       1.0  0.9044200966160509  0.20405843783728253  0.10300089511860101  1.0000
  H   H23       1.0  0.9036993830360053  0.11903226429506897  0.7816741189240363  1.0000
  H   H24       1.0  0.9928745074258021  0.7390157395299739  0.22025613061983695  1.0000
  H   H25       1.0  0.9941728171657058  0.976609970731678  0.20462872976318902  1.0000
  H   H26       1.0  0.8327852645742725  0.991683752074548  0.8870189637875656  1.0000
  H   H27       1.0  0.8290240045101109  0.7533146722993893  0.9054390516330897  1.0000
  H   H28       1.0  0.8661296137968788  0.1919445281359487  0.9940570939163167  1.0000
  H   H29       1.0  0.9178230607855138  0.3865088278541231  0.10952598684133806  1.0000
  H   H30       1.0  0.9688617094192172  0.4089948893105443  0.9586586429346903  1.0000
  H   H31       1.0  0.019034121632694582  0.4006704850482401  0.1132826215148186  1.0000
  Zn  Zn1       1.0  0.8239729458880769  0.38094251251952715  0.5878982340528214  1.0000
  Zn  Zn2       1.0  0.9893439670639024  0.372946866908685  0.5920136003863592  1.0000
  C   C40       1.0  0.9066154684539357  0.37185921650715725  0.827153328856794  1.0000
  C   C41       1.0  0.9067032506146621  0.3820317142598069  0.3527586778506415  1.0000
  C   C42       1.0  0.9067016795781626  0.6141329217554099  0.5847609316882854  1.0000
  C   C43       1.0  0.9066169827682199  0.13975645147812532  0.5951511429859739  1.0000
  O   O3        1.0  0.9694507749322729  0.3807463988382058  0.40270644586405985  1.0000
  O   O4        1.0  0.969380722677455  0.36707504206517383  0.7803286549019565  1.0000
  O   O5        1.0  0.9694494929998068  0.5627141644268507  0.5845950580541059  1.0000
  O   O6        1.0  0.9693819481997182  0.1851072884589334  0.5984399439315466  1.0000
  O   O7        1.0  0.8439349083192491  0.5687820936992114  0.5814718890964305  1.0000
  O   O8        1.0  0.8438661382861012  0.37314453160089606  0.7772054165662532  1.0000
  O   O9        1.0  0.8439361908725596  0.38681584253711176  0.3995816461229103  1.0000
  O   O10       1.0  0.8438673641171959  0.19117672290536808  0.5953152415595566  1.0000
