data_image0
_chemical_formula_structural       NC9NC3OH6C6H4C7OH5Zn2C4O8
_chemical_formula_sum              "N2 C29 O10 H15 Zn2"
_cell_length_a       15.78231758774541
_cell_length_b       10.681118228259553
_cell_length_c       9.274081674992354
_cell_angle_alpha    86.07103853506838
_cell_angle_beta     89.75780300142802
_cell_angle_gamma    89.63144314392761

_space_group_name_H-M_alt    "P 1"
_space_group_IT_number       1

loop_
  _space_group_symop_operation_xyz
  'x, y, z'

loop_
  _atom_site_type_symbol
  _atom_site_label
  _atom_site_symmetry_multiplicity
  _atom_site_fract_x
  _atom_site_fract_y
  _atom_site_fract_z
  _atom_site_occupancy
  N   N1        1.0  0.8032204171679886  0.35044074594169256  0.4128142910644572  1.0000
  C   C1        1.0  0.7545990608569321  0.27151591605759706  0.4395391841301782  1.0000
  C   C2        1.0  0.694233865710736  0.17355102078613927  0.47271166135067305  1.0000
  C   C3        1.0  0.7137574842544182  0.05049063910310947  0.5142935051402048  1.0000
  C   C4        1.0  0.6369592752119627  0.9908514052628122  0.5345284353561648  1.0000
  C   C5        1.0  0.5752813205888753  0.08193052867861539  0.5037989270510379  1.0000
  C   C6        1.0  0.4821710080465156  0.06509218402344195  0.5095821906950131  1.0000
  C   C7        1.0  0.428542945922617  0.16834035984454607  0.47456327991302305  1.0000
  C   C8        1.0  0.34032058228524875  0.1545333828154687  0.4793133647886798  1.0000
  C   C9        1.0  0.28599945900365725  0.26078554658798714  0.4432664082898774  1.0000
  N   N2        1.0  0.2423381599318263  0.3461985667379601  0.41428787697037617  1.0000
  C   C10       1.0  0.3050448117364848  0.03732457710407621  0.5191367362869205  1.0000
  C   C11       1.0  0.35774216703387063  0.9342899016479729  0.5540880822001994  1.0000
  C   C12       1.0  0.4457784369972033  0.947717567876393  0.54946707815645  1.0000
  O   O1        1.0  0.6118618189912493  0.1898702865626447  0.4672722998505439  1.0000
  H   H1        1.0  0.7761712162485539  0.008989824114255198  0.5282599588125039  1.0000
  H   H2        1.0  0.6281163318774854  0.8927879326521457  0.567680812892033  1.0000
  H   H3        1.0  0.4552520056718346  0.2595495527011331  0.44356839533854703  1.0000
  H   H4        1.0  0.236915081096532  0.025630766712089196  0.5231574555746952  1.0000
  H   H5        1.0  0.3303034982004728  0.8437042658308184  0.5848715397877159  1.0000
  H   H6        1.0  0.48477231430361134  0.8661069201818461  0.5771601617049791  1.0000
  C   C13       1.0  0.022783322095432542  0.9805696696106859  0.41355728956986115  1.0000
  C   C14       1.0  0.05959298188008378  0.9065886020953594  0.5281498085473504  1.0000
  C   C15       1.0  0.05959296914838119  0.7757063635314584  0.528149742605655  1.0000
  C   C16       1.0  0.022783307658937657  0.7160600741902312  0.41355735183012077  1.0000
  C   C17       1.0  0.986004119585443  0.7900301812048534  0.2990595293189229  1.0000
  C   C18       1.0  0.986004132299716  0.9209224396345874  0.2990595878615807  1.0000
  H   H7        1.0  0.08844618021272274  0.949781383887823  0.61797278863356  1.0000
  H   H8        1.0  0.08844607612339118  0.7212773561001787  0.6179727628234517  1.0000
  H   H9        1.0  0.9571471592519892  0.7468828879450015  0.20922482114407837  1.0000
  H   H10       1.0  0.9571471370815057  0.9753073271021766  0.2092248093494804  1.0000
  C   C19       1.0  0.024213276535361764  0.3450182213363293  0.9902923900510469  1.0000
  C   C20       1.0  0.09302768815954421  0.3988551541801202  0.059049394260863204  1.0000
  C   C21       1.0  0.15704378982116007  0.46197707555659173  0.9787812682613581  1.0000
  C   C22       1.0  0.15222829298082752  0.4716018467134855  0.8276424078143578  1.0000
  C   C23       1.0  0.08518941978961547  0.4170337172548577  0.7576885345059456  1.0000
  C   C24       1.0  0.02135334781235175  0.3516114809975408  0.8368222076543201  1.0000
  C   C25       1.0  0.22783387762157858  0.5182878597221463  0.054463752679702486  1.0000
  O   O2        1.0  0.28614571670178734  0.5760698475832866  0.9853197104148493  1.0000
  H   H11       1.0  0.8234558678283777  0.26560785036722967  0.10098748469211127  1.0000
  H   H12       1.0  0.20074259497794122  0.5203175457524729  0.7631973500051985  1.0000
  H   H13       1.0  0.08440350238215988  0.4235116727541375  0.6406121384903898  1.0000
  H   H14       1.0  0.8875280552740767  0.2929885292289325  0.561288767830213  1.0000
  H   H15       1.0  0.23030404491402712  0.5103026341287202  0.17137923042686956  1.0000
  Zn  Zn1       1.0  0.9299402805220952  0.34921326433721234  0.41324785280110987  1.0000
  Zn  Zn2       1.0  0.11561822827887042  0.3474159191552719  0.41386609782814143  1.0000
  C   C26       1.0  0.021892040220149903  0.34537631686510917  0.676809973393965  1.0000
  C   C27       1.0  0.02366849570023465  0.351254428205754  0.15030412545615768  1.0000
  C   C28       1.0  0.022798345309555046  0.5769920132528714  0.40781362457673503  1.0000
  C   C29       1.0  0.022762126992360115  0.11963722844658477  0.4193005509072718  1.0000
  O   O3        1.0  0.0939494757804546  0.35265980965562393  0.20424014634865853  1.0000
  O   O4        1.0  0.09253632759385576  0.34260584404225924  0.6233427712560762  1.0000
  O   O5        1.0  0.09326722546609455  0.5296384689234346  0.4061263132296289  1.0000
  O   O6        1.0  0.09321851491402255  0.16562719350449573  0.42145649609219227  1.0000
  O   O7        1.0  0.9523399305241981  0.5310019906026382  0.40565745431850087  1.0000
  O   O8        1.0  0.9516090329076833  0.3439708697075201  0.6228738354925067  1.0000
  O   O9        1.0  0.9530221870052077  0.3540247781834085  0.2037694776539125  1.0000
  O   O10       1.0  0.9522912257702238  0.16699215391688305  0.4209859354618021  1.0000
