data_image0
_chemical_formula_structural       NC9NC3SH6C12H9C9H10Zn2C4O8
_chemical_formula_sum              "N2 C37 S1 H25 Zn2 O8"
_cell_length_a       16.77567553997237
_cell_length_b       10.299137764757564
_cell_length_c       9.272679976505533
_cell_angle_alpha    85.9999409853106
_cell_angle_beta     90.7858477527611
_cell_angle_gamma    90.9119803869589

_space_group_name_H-M_alt    "P 1"
_space_group_IT_number       1

loop_
  _space_group_symop_operation_xyz
  'x, y, z'

loop_
  _atom_site_type_symbol
  _atom_site_label
  _atom_site_symmetry_multiplicity
  _atom_site_fract_x
  _atom_site_fract_y
  _atom_site_fract_z
  _atom_site_occupancy
  N   N1        1.0  0.7449438190161349  0.4283421260233289  0.41696209061375566  1.0000
  C   C1        1.0  0.6903828524902222  0.4780165195950113  0.4631331700431291  1.0000
  C   C2        1.0  0.6226718794013177  0.5396591541973546  0.5204279469249617  1.0000
  C   C3        1.0  0.6252308652979794  0.6285384026558276  0.6259335959760497  1.0000
  C   C4        1.0  0.5497374106201843  0.6722747757085323  0.6609068028205127  1.0000
  C   C5        1.0  0.48742117665620693  0.6176433930466474  0.582525447370714  1.0000
  C   C6        1.0  0.4009824411525899  0.6437998543303703  0.5945658320324001  1.0000
  C   C7        1.0  0.3438999606599046  0.5637249225532308  0.5298763623957534  1.0000
  C   C8        1.0  0.2623059822519854  0.5878620449621963  0.5407442017041781  1.0000
  C   C9        1.0  0.2045495017587274  0.505106794278078  0.4745063069148403  1.0000
  N   N2        1.0  0.1581303549939188  0.43858343400420485  0.42126082625036226  1.0000
  C   C10       1.0  0.23696404013812186  0.6923863452726768  0.6161225640964028  1.0000
  C   C11       1.0  0.2929529382315629  0.772616302713085  0.6802995374629548  1.0000
  C   C12       1.0  0.3743905962089629  0.7488448871466279  0.6697586642213869  1.0000
  S   S1        1.0  0.527552852423081  0.5147146541924679  0.4702997670596742  1.0000
  H   H1        1.0  0.6798357565363681  0.6607788790829583  0.6767371586828039  1.0000
  H   H2        1.0  0.5418002603472403  0.7407861657399698  0.7424704814100132  1.0000
  H   H3        1.0  0.3624559157232249  0.48198752325853  0.47166849719850923  1.0000
  H   H4        1.0  0.1740185955178008  0.7119136610710538  0.6250970550567554  1.0000
  H   H5        1.0  0.27321484544042696  0.8537395013376705  0.7381550923294651  1.0000
  H   H6        1.0  0.4160358129450196  0.8138599712254739  0.7194336618257056  1.0000
  C   C13       1.0  0.9514647659460923  0.052062238352181614  0.4192678874752689  1.0000
  C   C14       1.0  0.9508496080253258  0.06079999193870522  0.26745828203361266  1.0000
  C   C15       1.0  0.9506159124871107  0.9480994609561448  0.19033011049800705  1.0000
  C   C16       1.0  0.9510056416990578  0.8255457965623773  0.26706346057962865  1.0000
  C   C17       1.0  0.9516170757605474  0.8148536301202298  0.4189676327237948  1.0000
  C   C18       1.0  0.9518442102619584  0.9286225274895045  0.49413467430588254  1.0000
  C   C19       1.0  0.9499641919830666  0.9583880311223918  0.029730536704545067  1.0000
  C   C20       1.0  0.9977523178987409  0.8766958364536929  0.9526712277043932  1.0000
  C   C21       1.0  0.9970397702645637  0.8866283255013305  0.8014990276104386  1.0000
  C   C22       1.0  0.9487325765403567  0.9778725451485263  0.725679255361495  1.0000
  C   C23       1.0  0.9010371792749463  0.059439212307714547  0.8008777514870409  1.0000
  C   C24       1.0  0.9015492631933727  0.04999665841491428  0.9520488401448635  1.0000
  H   H7        1.0  0.9516540643972147  0.15552183088635085  0.20885269157153785  1.0000
  H   H8        1.0  0.9497295348861988  0.7383185236864994  0.2081626107440923  1.0000
  H   H9        1.0  0.9523165130470164  0.9211673140418362  0.6112288838130566  1.0000
  H   H10       1.0  0.9522641677360095  0.5873685951406374  0.7056735152321926  1.0000
  H   H11       1.0  0.03639460593552868  0.8063965857499991  0.009267795938564305  1.0000
  H   H12       1.0  0.034142897099121994  0.8237131930780567  0.7431018935330154  1.0000
  H   H13       1.0  0.9482586676835862  0.9853714453335936  0.6086624317619846  1.0000
  H   H14       1.0  0.8634590941512595  0.1298699688144418  0.7419958497581836  1.0000
  H   H15       1.0  0.8633637069315989  0.11307580853873889  0.008139674652001043  1.0000
  C   C25       1.0  0.9499238806748895  0.4303509542237085  0.9957394698862576  1.0000
  C   C26       1.0  0.004088211457159652  0.3513541846956079  0.07660100263402381  1.0000
  C   C27       1.0  0.06218075067706664  0.2829795115932898  0.008632007668076149  1.0000
  C   C28       1.0  0.06807339493482911  0.2913543348384251  0.8578278074091896  1.0000
  C   C29       1.0  0.012951745652102447  0.3685646786229536  0.7755727356169699  1.0000
  C   C30       1.0  0.9531579565108593  0.4365649353004938  0.8424960846433853  1.0000
  C   C31       1.0  0.13359889432185645  0.21474069410314997  0.7923922458647992  1.0000
  C   C32       1.0  0.11460330734073287  0.15483186069485178  0.6501182675089061  1.0000
  C   C33       1.0  0.17070295698414717  0.27251588868778365  0.6528374372675625  1.0000
  H   H16       1.0  0.8298989507397148  0.5151895561043214  0.26740688173701277  1.0000
  H   H17       1.0  0.0028247833997385712  0.34477145574499724  0.1936650523436767  1.0000
  H   H18       1.0  0.10344137097232631  0.22398043552691083  0.0747174332707323  1.0000
  H   H19       1.0  0.014736243922408802  0.374223581147025  0.658810176123521  1.0000
  H   H20       1.0  0.7721815141781142  0.5542636389874707  0.7258621485510361  1.0000
  H   H21       1.0  0.17525579145203474  0.15734718775686493  0.8650350333079911  1.0000
  H   H22       1.0  0.05538859301632648  0.17552783213093526  0.5998118290500938  1.0000
  H   H23       1.0  0.14555154668676695  0.06209765172672245  0.6361832505985854  1.0000
  H   H24       1.0  0.14560401792467226  0.3646399179453461  0.6040664713748995  1.0000
  H   H25       1.0  0.2344482961440109  0.2485545609038828  0.6404879272072197  1.0000
  Zn  Zn1       1.0  0.8641805619932631  0.43129413980963194  0.4182109487906238  1.0000
  Zn  Zn2       1.0  0.03889365015721503  0.4356209118713228  0.42002381216572704  1.0000
  C   C34       1.0  0.9525438431498763  0.43021619050233806  0.6824429293623668  1.0000
  C   C35       1.0  0.9505322777297954  0.4367005482213971  0.15579199225271045  1.0000
  C   C36       1.0  0.9515622444911416  0.6706275581105396  0.4132790922867594  1.0000
  C   C37       1.0  0.9515138167531512  0.1962876192682752  0.4249559061895287  1.0000
  O   O1        1.0  0.017039166641057868  0.4404678512060688  0.21019505529027313  1.0000
  O   O2        1.0  0.018640143788579477  0.4297318245479787  0.6294153730386779  1.0000
  O   O3        1.0  0.017846602391199402  0.6238670331749793  0.4120636604153822  1.0000
  O   O4        1.0  0.017832648009672436  0.2463326496003267  0.42754665919041246  1.0000
  O   O5        1.0  0.8852415045197746  0.6205824006054717  0.4106881011397127  1.0000
  O   O6        1.0  0.8860350459315025  0.42644875184823455  0.6280397362755722  1.0000
  O   O7        1.0  0.8844340622074687  0.4371847205272994  0.20881768515009025  1.0000
  O   O8        1.0  0.8852275439838179  0.24304951042514225  0.42616939714716073  1.0000
