data_image0
_chemical_formula_structural       NC9NC3OH6C7ONH7C8NH7Zn2C4O8
_chemical_formula_sum              "N4 C31 O10 H20 Zn2"
_cell_length_a       15.78231758774541
_cell_length_b       10.297852080636378
_cell_length_c       9.274266800404106
_cell_angle_alpha    85.98589005779941
_cell_angle_beta     89.63778846235708
_cell_angle_gamma    89.61065309411966

_space_group_name_H-M_alt    "P 1"
_space_group_IT_number       1

loop_
  _space_group_symop_operation_xyz
  'x, y, z'

loop_
  _atom_site_type_symbol
  _atom_site_label
  _atom_site_symmetry_multiplicity
  _atom_site_fract_x
  _atom_site_fract_y
  _atom_site_fract_z
  _atom_site_occupancy
  N   N1        1.0  0.804833758489055  0.4028046615185122  0.4126571415089275  1.0000
  C   C1        1.0  0.7561990335418813  0.32090682396478987  0.4393850938382697  1.0000
  C   C2        1.0  0.6958172441914763  0.2192517031189425  0.47256136838458573  1.0000
  C   C3        1.0  0.7153201259080479  0.0915558944551913  0.5141479740575812  1.0000
  C   C4        1.0  0.6385117654379895  0.029670065799372484  0.5343852197385226  1.0000
  C   C5        1.0  0.5768491022105998  0.12417988838975891  0.5036521913415668  1.0000
  C   C6        1.0  0.48373583752401317  0.10670715471797099  0.5094361152376627  1.0000
  C   C7        1.0  0.430125334911018  0.2138446472046167  0.4744131970118377  1.0000
  C   C8        1.0  0.341900540832253  0.19951747818419263  0.47916382401509955  1.0000
  C   C9        1.0  0.2875974991974726  0.30977212975939233  0.4431127426254092  1.0000
  N   N2        1.0  0.2439507371906452  0.39840263518721303  0.41413089529335423  1.0000
  C   C10       1.0  0.3066047514285902  0.07789337278494002  0.5189917512583397  1.0000
  C   C11       1.0  0.3592845775838734  0.9709774167225381  0.5539470967784363  1.0000
  C   C12       1.0  0.4473232129529845  0.984910985891597  0.5493255653693438  1.0000
  O   O1        1.0  0.6134478556578766  0.23618558243883062  0.4671213823480684  1.0000
  H   H1        1.0  0.7777269339647795  0.048491905473308186  0.5281160283763808  1.0000
  H   H2        1.0  0.6296522767354584  0.9279127250481118  0.5675413934608153  1.0000
  H   H3        1.0  0.4568499793104755  0.3084897315266608  0.44341476677419195  1.0000
  H   H4        1.0  0.23847296522233702  0.06575898924149451  0.5230129294816519  1.0000
  H   H5        1.0  0.33183043006799495  0.8769793784916506  0.5847340758327084  1.0000
  H   H6        1.0  0.48630319470682876  0.9002260811689122  0.5770218177368904  1.0000
  C   C13       1.0  0.024486575671569075  0.019165623988115273  0.41340292896087383  1.0000
  C   C14       1.0  0.013583931309267383  0.02780247365672617  0.26277771092392976  1.0000
  C   C15       1.0  0.007306704342254329  0.9150972874416011  0.18651884893403725  1.0000
  C   C16       1.0  0.0133699531261413  0.7925520760093842  0.26272726367037125  1.0000
  C   C17       1.0  0.024305918083830747  0.7820316997670239  0.41339752979677025  1.0000
  C   C18       1.0  0.02959199581642147  0.8958541481103994  0.4877843598999801  1.0000
  C   C19       1.0  0.9960015756954529  0.9268179460741659  0.02740981218202876  1.0000
  O   O2        1.0  0.01896926859517189  0.029211154717789584  0.9557043286094751  1.0000
  N   N3        1.0  0.9584893180649939  0.8248854872071367  0.9528598464910791  1.0000
  H   H7        1.0  0.04539978501332471  0.21011183954241958  0.6980092264119637  1.0000
  H   H8        1.0  0.009209708431988201  0.12258359830183041  0.20465688112939828  1.0000
  H   H9        1.0  0.011239451196623614  0.704985839494931  0.20490558511350979  1.0000
  H   H10       1.0  0.037992685710786185  0.8884440927864694  0.6038730799008563  1.0000
  H   H11       1.0  0.04633373970250629  0.5548767023515573  0.6978762142041477  1.0000
  H   H12       1.0  0.9547390703484809  0.8332391960119266  0.840219730792338  1.0000
  H   H13       1.0  0.9292981176231114  0.7454134925563763  0.008150852414872343  1.0000
  C   C20       1.0  0.02634570981479101  0.3977391118316238  0.9900960896173241  1.0000
  C   C21       1.0  0.9771293381433028  0.30524749677139495  0.07108097248069356  1.0000
  C   C22       1.0  0.9227833688597453  0.2229092920480109  0.003002073497388349  1.0000
  C   C23       1.0  0.915841958255398  0.2318073970901895  0.8522808596657527  1.0000
  C   C24       1.0  0.9662222624812423  0.32118196625539164  0.7699936512748549  1.0000
  C   C25       1.0  0.022446790622002725  0.4034582084006466  0.8367043839029935  1.0000
  C   C26       1.0  0.8581516542810572  0.14166310267227836  0.7790060088377482  1.0000
  C   C27       1.0  0.9040624781087725  0.02245245487602121  0.7479457419251356  1.0000
  N   N4        1.0  0.9403029373614724  0.9283676710397679  0.723429229058568  1.0000
  H   H14       1.0  0.11961644778166503  0.6826787131316931  0.06984262489791804  1.0000
  H   H15       1.0  0.9792941895878198  0.2984986315345872  0.18810230287981192  1.0000
  H   H16       1.0  0.8854077015017596  0.1528664815789469  0.06812104811220832  1.0000
  H   H17       1.0  0.9629218447700991  0.32417877757740454  0.6530915603357497  1.0000
  H   H18       1.0  0.08832223115353005  0.5927452959599462  0.5405843039197777  1.0000
  H   H19       1.0  0.8339722421376757  0.18946655056984008  0.6761555269431475  1.0000
  H   H20       1.0  0.802586594814869  0.11553176826072137  0.8489812577798341  1.0000
  Zn  Zn1       1.0  0.9315533919654974  0.40153091838973165  0.41309075248722293  1.0000
  Zn  Zn2       1.0  0.11723102346415021  0.39966585652706793  0.41370906807685404  1.0000
  C   C28       1.0  0.023183123498344383  0.39720258144368015  0.6766773478370909  1.0000
  C   C29       1.0  0.025603318485642557  0.4039958129790083  0.15012262095012185  1.0000
  C   C30       1.0  0.02436218426568203  0.6377950116058695  0.4076543451305348  1.0000
  C   C31       1.0  0.024424194375084467  0.16340182338704246  0.4191457003087251  1.0000
  O   O3        1.0  0.09581786000212017  0.40538217101450097  0.20406363430943333  1.0000
  O   O4        1.0  0.09389361014441056  0.39439970190582163  0.6232052067562579  1.0000
  O   O5        1.0  0.09484475983824714  0.5886811516348973  0.4059672255156628  1.0000
  O   O6        1.0  0.09486664744463663  0.2111007304836232  0.4213015072570072  1.0000
  O   O7        1.0  0.9539177046223821  0.5900960450709927  0.4054983130884864  1.0000
  O   O8        1.0  0.9529665549091376  0.39581615540951015  0.6227362174584516  1.0000
  O   O9        1.0  0.9548908128153462  0.40679856754588806  0.20359291192013362  1.0000
  O   O10       1.0  0.9539395997588811  0.2125171184546295  0.4208308929421465  1.0000
