data_image0
_chemical_formula_structural       NC9NC3SH6C9H10C6SCNH5Zn2C4O8
_chemical_formula_sum              "N3 C32 S2 H21 Zn2 O8"
_cell_length_a       16.77567553997237
_cell_length_b       9.272676604525723
_cell_length_c       10.302218930750287
_cell_angle_alpha    85.8010258303436
_cell_angle_beta     90.41546648822373
_cell_angle_gamma    91.44448428757873

_space_group_name_H-M_alt    "P 1"
_space_group_IT_number       1

loop_
  _space_group_symop_operation_xyz
  'x, y, z'

loop_
  _atom_site_type_symbol
  _atom_site_label
  _atom_site_symmetry_multiplicity
  _atom_site_fract_x
  _atom_site_fract_y
  _atom_site_fract_z
  _atom_site_occupancy
  N   N1        1.0  0.7589546988305911  0.5993334441951741  0.5812611025055003  1.0000
  C   C1        1.0  0.7045078163224314  0.6541139118009229  0.6230762494209698  1.0000
  C   C2        1.0  0.6369384157062188  0.7220928502806815  0.6749656497874327  1.0000
  C   C3        1.0  0.6396171205851111  0.819917950363721  0.7703999525204437  1.0000
  C   C4        1.0  0.5642450475228455  0.8681971800903536  0.802102838448158  1.0000
  C   C5        1.0  0.5019051069841308  0.8081794120173154  0.7312580165295679  1.0000
  C   C6        1.0  0.4155716834933152  0.837126423519009  0.7422255010202778  1.0000
  C   C7        1.0  0.35826939902540456  0.748739651890421  0.6835890320876442  1.0000
  C   C8        1.0  0.2767734981542498  0.7754539055706946  0.6934909751305554  1.0000
  C   C9        1.0  0.2187875819737531  0.6841034729391285  0.6334473217668144  1.0000
  N   N2        1.0  0.1721840007215266  0.6106708158911258  0.5851810942532647  1.0000
  C   C10       1.0  0.25175188433331064  0.8909031691805651  0.7618697327725097  1.0000
  C   C11       1.0  0.3079633630445754  0.9794663541857552  0.8200454284722916  1.0000
  C   C12       1.0  0.38930383111947964  0.9531555062046064  0.8104396709454144  1.0000
  S   S1        1.0  0.5418614290311601  0.6948080246753274  0.6297051154729039  1.0000
  H   H1        1.0  0.6942192384898908  0.8552994183644635  0.8163035143342582  1.0000
  H   H2        1.0  0.5563993108155605  0.9436024010061201  0.8758796713062518  1.0000
  H   H3        1.0  0.3765721400264079  0.6584528693227865  0.630781443314951  1.0000
  H   H4        1.0  0.18888511416076037  0.9125139118139831  0.7700446695121896  1.0000
  H   H5        1.0  0.2884762679187111  0.06907398676948341  0.8725328223764286  1.0000
  H   H6        1.0  0.4311380131473579  0.024942858507117638  0.8554834050840874  1.0000
  C   C13       1.0  0.9633135927506095  0.18145191510520403  0.581541133868018  1.0000
  C   C14       1.0  0.9314127855156935  0.24467121528852775  0.688765808774132  1.0000
  C   C15       1.0  0.906807847512701  0.15985453887489792  0.7992328354065379  1.0000
  C   C16       1.0  0.9133097408344729  0.009283353760025443  0.8061926566668556  1.0000
  C   C17       1.0  0.943903978189065  0.9445785821508745  0.6979552740510573  1.0000
  C   C18       1.0  0.9678327066557396  0.028541466007857126  0.5849123661725179  1.0000
  C   C19       1.0  0.8858560801120918  0.9249090393147565  0.9306525741381105  1.0000
  C   C20       1.0  0.8455547937072901  0.7777094091920916  0.9173431859939336  1.0000
  C   C21       1.0  0.929759331760595  0.7874609053994146  0.9730779805627883  1.0000
  H   H7        1.0  0.9809867428705361  0.4807709082055478  0.36895322394653474  1.0000
  H   H8        1.0  0.9272054599175996  0.36107831451229233  0.6886010850688784  1.0000
  H   H9        1.0  0.8831992436354396  0.2126501581628213  0.8805864626586879  1.0000
  H   H10       1.0  0.9477080953885426  0.8282825665090257  0.6991970016684452  1.0000
  H   H11       1.0  0.9884727517225579  0.952304404312706  0.2672019928854559  1.0000
  H   H12       1.0  0.8632972383112423  0.9844099160262998  0.01218521584819254  1.0000
  H   H13       1.0  0.8418387882941811  0.7383609835646467  0.8183295628696146  1.0000
  H   H14       1.0  0.7993552129503952  0.7476567525615146  0.9918073888028687  1.0000
  H   H15       1.0  0.977168807172467  0.7539068453113211  0.9079966994529728  1.0000
  H   H16       1.0  0.9327712036748695  0.763101416528601  0.08013362153984105  1.0000
  C   C22       1.0  0.9654991530805948  0.6050622141595774  0.2019511383159358  1.0000
  C   C23       1.0  0.04023850547986174  0.5399185132398056  0.20617477491817282  1.0000
  C   C24       1.0  0.07739085618385211  0.5070486299709864  0.09129706615415677  1.0000
  C   C25       1.0  0.0404319714943524  0.5397452144056141  0.9710216614812477  1.0000
  C   C26       1.0  0.965647104914304  0.6049311671261631  0.9645023417406453  1.0000
  C   C27       1.0  0.9285775328069747  0.6371786244870731  0.0805378541082582  1.0000
  S   S2        1.0  0.17293606136162643  0.4244567876282552  0.0981306036353755  1.0000
  C   C28       1.0  0.13029728990795625  0.24806041989290614  0.10930033420543482  1.0000
  N   N3        1.0  0.10231989135936193  0.13242371321232738  0.11662282720036532  1.0000
  H   H17       1.0  0.9370666166437731  0.6299220544293709  0.527674212729129  1.0000
  H   H18       1.0  0.06985440945816745  0.5141930441646476  0.2984232754347389  1.0000
  H   H19       1.0  0.0701804820390981  0.5139008918262713  0.8830037180569595  1.0000
  H   H20       1.0  0.8709336320639401  0.6874001512633108  0.07643358845027359  1.0000
  H   H21       1.0  0.8247243417362654  0.7279399350945119  0.7449876391421024  1.0000
  Zn  Zn1       1.0  0.8782037328987292  0.6026013126220404  0.5823998178594927  1.0000
  Zn  Zn2       1.0  0.052934900986794986  0.6073911794892364  0.584052994578151  1.0000
  C   C29       1.0  0.9655867168718708  0.5992099854657786  0.8203409552024309  1.0000
  C   C30       1.0  0.9655538348059617  0.6107843787883402  0.3461120099657262  1.0000
  C   C31       1.0  0.9669733677634375  0.868424297198291  0.5791011745374102  1.0000
  C   C32       1.0  0.9641671150596541  0.3415683325292207  0.5873518523918679  1.0000
  O   O1        1.0  0.031881720593848195  0.6145162266216055  0.39512106232407235  1.0000
  O   O2        1.0  0.03187573878152561  0.5991124477339915  0.7725862476367558  1.0000
  O   O3        1.0  0.032994583290335104  0.8165063844018045  0.5777834154493837  1.0000
  O   O4        1.0  0.030762816497280836  0.397122298653833  0.5899237966375463  1.0000
  O   O5        1.0  0.9003757577610783  0.8128701918244683  0.5765290152291265  1.0000
  O   O6        1.0  0.8992569224798443  0.595477988050287  0.7713317850844065  1.0000
  O   O7        1.0  0.8992629037741598  0.6108817169460793  0.39386503855354266  1.0000
  O   O8        1.0  0.8981439996381851  0.3934877786452906  0.5886678701699439  1.0000
