data_image0
_chemical_formula_structural       NC5NC3F3CH3C6ClH5C9H10Zn2C4O8
_chemical_formula_sum              "N2 C28 F3 H18 Cl1 Zn2 O8"
_cell_length_a       13.85151926108384
_cell_length_b       10.30297070629231
_cell_length_c       10.297187173949778
_cell_angle_alpha    85.56773501040368
_cell_angle_beta     89.97408904731064
_cell_angle_gamma    89.9983157295073

_space_group_name_H-M_alt    "P 1"
_space_group_IT_number       1

loop_
  _space_group_symop_operation_xyz
  'x, y, z'

loop_
  _atom_site_type_symbol
  _atom_site_label
  _atom_site_symmetry_multiplicity
  _atom_site_fract_x
  _atom_site_fract_y
  _atom_site_fract_z
  _atom_site_occupancy
  N   N1        1.0  0.9095326607594402  0.42065727218832083  0.5671898903910644  1.0000
  C   C1        1.0  0.8371844020775241  0.4124901092956194  0.623477478073432  1.0000
  C   C2        1.0  0.7471774766403032  0.4023290386916698  0.6935072894924024  1.0000
  C   C3        1.0  0.6596741147697396  0.41062213868837594  0.6254532702365745  1.0000
  C   C4        1.0  0.5721254871427639  0.4023290268552564  0.6935072714178769  1.0000
  C   C5        1.0  0.48216514992943  0.4124901238445886  0.6234775628362885  1.0000
  N   N2        1.0  0.4098544751149792  0.4206572380911056  0.5671899854126015  1.0000
  C   C6        1.0  0.5720709250846688  0.38484442334988844  0.8297739138553022  1.0000
  C   C7        1.0  0.6595830417341395  0.37367988198517454  0.8989651664216636  1.0000
  C   C8        1.0  0.6595340014392584  0.3596748137838119  0.04586071216469089  1.0000
  F   F1        1.0  0.7404542521506854  0.29232954120514076  0.09235751687419902  1.0000
  F   F2        1.0  0.5785854374604911  0.29232951366935267  0.09235760634860435  1.0000
  F   F3        1.0  0.6595156465945883  0.48194553128438516  0.09246571792234082  1.0000
  C   C9        1.0  0.7471412519215257  0.384844337601397  0.8297739315307894  1.0000
  H   H1        1.0  0.6597092711601791  0.4243035570973046  0.5199508042844612  1.0000
  H   H2        1.0  0.5039303163678992  0.38018936960602734  0.881723244556502  1.0000
  H   H3        1.0  0.8152470699011418  0.38018929677317853  0.8817232075743031  1.0000
  C   C10       1.0  0.1596981637608923  0.0394098204313309  0.5671955184146409  1.0000
  C   C11       1.0  0.2593774133477109  0.03626987543144899  0.5922152852024198  1.0000
  C   C12       1.0  0.30883559654192827  0.9177550746076804  0.6046293348946505  1.0000
  C   C13       1.0  0.25937741259742086  0.8011619067539214  0.5922152241114824  1.0000
  C   C14       1.0  0.15969817403893494  0.8018947622532929  0.567195592773827  1.0000
  C   C15       1.0  0.11034444058817905  0.9216110984752515  0.5548076409275211  1.0000
  Cl  Cl1       1.0  0.4333587284863835  0.9153360521225967  0.6358848951522816  1.0000
  H   H4        1.0  0.12215073650439862  0.3678957009523773  0.5577702832252163  1.0000
  H   H5        1.0  0.2990222734362235  0.12554630749037957  0.6021661429856808  1.0000
  H   H6        1.0  0.2990222352890713  0.7103451146506302  0.6021660496591674  1.0000
  H   H7        1.0  0.03346877837509977  0.923104392138839  0.5355116046741941  1.0000
  H   H8        1.0  0.12215073171430983  0.4748677343067879  0.557770528473903  1.0000
  C   C16       1.0  0.15982580901365484  0.42060534440916486  0.18574237888251918  1.0000
  C   C17       1.0  0.0619896701171472  0.4562649131419684  0.18226046073152347  1.0000
  C   C18       1.0  0.011865332523108396  0.474534143517501  0.0638601676641839  1.0000
  C   C19       1.0  0.06161040916519013  0.45640264913450146  0.9470377356168593  1.0000
  C   C20       1.0  0.159570558709488  0.420699227786742  0.9486486885517844  1.0000
  C   C21       1.0  0.20803854264705288  0.4030324528430256  0.06838998482257974  1.0000
  C   C22       1.0  0.9060484967988082  0.5131022501196532  0.06952639431761343  1.0000
  C   C23       1.0  0.8384605287452763  0.46088338459175515  0.9692545410878458  1.0000
  C   C24       1.0  0.867168254092035  0.6041125067395636  0.9581550487956414  1.0000
  H   H9        1.0  0.1975278099012865  0.40687635083321955  0.5146214840441563  1.0000
  H   H10       1.0  0.024219626951959016  0.47003178841558957  0.2723386074990514  1.0000
  H   H11       1.0  0.02488843761554826  0.4697841796781994  0.8544306323538939  1.0000
  H   H12       1.0  0.28352098937665415  0.37551970066398344  0.0703490105755058  1.0000
  H   H13       1.0  0.3445860358200004  0.35324890543693455  0.7444761764538663  1.0000
  H   H14       1.0  0.8720373827380747  0.5254997894993243  0.16560367375968754  1.0000
  H   H15       1.0  0.8711550238218988  0.4022852300183934  0.894729559971242  1.0000
  H   H16       1.0  0.7634276348771669  0.443316653966844  0.004373111921390776  1.0000
  H   H17       1.0  0.9173015960488105  0.6325180496588834  0.8768886614329999  1.0000
  H   H18       1.0  0.8089129005726764  0.6702572827596398  0.9867840380023516  1.0000
  Zn  Zn1       1.0  0.05391472650898965  0.4206537973702915  0.5671974049992252  1.0000
  Zn  Zn2       1.0  0.2654723883656265  0.4206501247935508  0.5671930620207006  1.0000
  C   C25       1.0  0.15961664345877025  0.41550943033920656  0.8044430571703124  1.0000
  C   C26       1.0  0.15977278157634345  0.4257961298978732  0.3299475372968528  1.0000
  C   C27       1.0  0.15969495144614876  0.657768211590751  0.5620192258196097  1.0000
  C   C28       1.0  0.15969440137588697  0.18353578885050376  0.5723714379029057  1.0000
  O   O1        1.0  0.24004001521631446  0.42753114726577324  0.37834245765317354  1.0000
  O   O2        1.0  0.23991678018197957  0.4137706461140898  0.7560444666651348  1.0000
  O   O3        1.0  0.2399789321395971  0.6093976759401176  0.5602855076828821  1.0000
  O   O4        1.0  0.23997779110098505  0.2319041267162798  0.5741013192407327  1.0000
  O   O5        1.0  0.07940925157938672  0.6093997954502286  0.5602891477738424  1.0000
  O   O6        1.0  0.07934709964060142  0.41377432542269094  0.7560480374953954  1.0000
  O   O7        1.0  0.07947033526168523  0.4275347811406866  0.3783444667378564  1.0000
  O   O8        1.0  0.07940811110982238  0.23190775131732488  0.5741034257147588  1.0000
