data_image0
_chemical_formula_structural       NC9NC3OH6C7NC2NH8C6NCOCH7Zn2C4O8
_chemical_formula_sum              "N5 C33 O10 H21 Zn2"
_cell_length_a       15.78231758774541
_cell_length_b       9.273995741505848
_cell_length_c       10.300272075376752
_cell_angle_alpha    85.68415599440686
_cell_angle_beta     90.08212328067073
_cell_angle_gamma    90.21461439936415

_space_group_name_H-M_alt    "P 1"
_space_group_IT_number       1

loop_
  _space_group_symop_operation_xyz
  'x, y, z'

loop_
  _atom_site_type_symbol
  _atom_site_label
  _atom_site_symmetry_multiplicity
  _atom_site_fract_x
  _atom_site_fract_y
  _atom_site_fract_z
  _atom_site_occupancy
  N   N1        1.0  0.807277710215218  0.5698021767664854  0.5735450095684624  1.0000
  C   C1        1.0  0.7582008973874322  0.4786721201615359  0.5974165796237337  1.0000
  C   C2        1.0  0.6972703713017818  0.36555756861790645  0.6270473509203489  1.0000
  C   C3        1.0  0.7160835469624044  0.22346749423892764  0.6641889684668563  1.0000
  C   C4        1.0  0.6389413074916175  0.15460505333672406  0.6822637980513082  1.0000
  C   C5        1.0  0.5777893158469408  0.2597679545989364  0.6548160286413214  1.0000
  C   C6        1.0  0.48458210298790944  0.24032490620677407  0.6599824638023482  1.0000
  C   C7        1.0  0.43154967041563136  0.3595402994045127  0.6287019524131718  1.0000
  C   C8        1.0  0.3432478775442139  0.34359746311068734  0.6329454657593793  1.0000
  C   C9        1.0  0.2895396832138099  0.4662814931810155  0.600746585606454  1.0000
  N   N2        1.0  0.24637109513885871  0.5649036254592771  0.5748615527006  1.0000
  C   C10       1.0  0.30729616927574305  0.20826179745096304  0.6685180789472754  1.0000
  C   C11       1.0  0.3593991427166242  0.08929287705553857  0.6997382756581203  1.0000
  C   C12       1.0  0.44751265512259875  0.10479773855131788  0.6956100665927191  1.0000
  O   O1        1.0  0.6149927853188691  0.3843996997964612  0.6221893993745881  1.0000
  H   H1        1.0  0.7782575025093631  0.1755496432624457  0.6766636069447249  1.0000
  H   H2        1.0  0.6295322875350284  0.04137717821014884  0.71187620255833  1.0000
  H   H3        1.0  0.45878471195739196  0.4648554460835435  0.6010154304291633  1.0000
  H   H4        1.0  0.2390991582870304  0.19475904441739877  0.6721099917461557  1.0000
  H   H5        1.0  0.33143808955479176  0.9846977192127135  0.7272359417856118  1.0000
  H   H6        1.0  0.48603577090445615  0.010565972241911135  0.7203469105479456  1.0000
  C   C13       1.0  0.024294547633426627  0.14389249841165985  0.573247033363447  1.0000
  C   C14       1.0  0.03917455494289411  0.22700599382093853  0.455851429502578  1.0000
  C   C15       1.0  0.06163577148629295  0.16168246135437037  0.34334940822126314  1.0000
  C   C16       1.0  0.07015388012004314  0.01114074961362776  0.3450303266828003  1.0000
  C   C17       1.0  0.05349476900953529  0.9267699015405735  0.46134482341564836  1.0000
  C   C18       1.0  0.029362276447644428  0.990802080668968  0.5751707153157999  1.0000
  C   C19       1.0  0.0949916708738025  0.9439107600172367  0.224428308930027  1.0000
  N   N3        1.0  0.09808195608811604  0.01820430257166184  0.10643580293943411  1.0000
  C   C20       1.0  0.12349852539507243  0.9200633560171462  0.024838277805133036  1.0000
  C   C21       1.0  0.1355856920812477  0.7889886696276109  0.09381414580348757  1.0000
  N   N4        1.0  0.1176941683730457  0.8041408570602158  0.21932072019157015  1.0000
  H   H7        1.0  0.9555787608968486  0.4091919533824478  0.7599391686768038  1.0000
  H   H8        1.0  0.0354880885712747  0.34389254126863517  0.4516519748547508  1.0000
  H   H9        1.0  0.07359661919669386  0.22978146158004042  0.25516819000160895  1.0000
  H   H10       1.0  0.056363693259593214  0.8101751305563737  0.46315306830225644  1.0000
  H   H11       1.0  0.03046375360411878  0.6926794812671154  0.7911288817085045  1.0000
  H   H12       1.0  0.13287588136396222  0.9430185108385911  0.9213301514497698  1.0000
  H   H13       1.0  0.1563959197834045  0.6896592004224279  0.05537974703437909  1.0000
  H   H14       1.0  0.12229639397779829  0.7235208125509069  0.2952431951682186  1.0000
  C   C22       1.0  0.026836238084742663  0.5674936800292907  0.1928565094149124  1.0000
  C   C23       1.0  0.9403282801647532  0.6025733653427299  0.18923494242015915  1.0000
  C   C24       1.0  0.8970041236351287  0.6221953350110019  0.07000063114643941  1.0000
  C   C25       1.0  0.9403348767275902  0.6022445007656609  0.9541002623833181  1.0000
  C   C26       1.0  0.026820610162192393  0.5672009020927421  0.9555612965042082  1.0000
  C   C27       1.0  0.06968991726446849  0.5505471388223215  0.07544362624638445  1.0000
  N   N5        1.0  0.8081240089900605  0.6558911495118196  0.06482618035180199  1.0000
  C   C28       1.0  0.7666018891444012  0.7461271240007976  0.1523559074700851  1.0000
  O   O2        1.0  0.8091184622145893  0.8227843759879011  0.22491997322808688  1.0000
  C   C29       1.0  0.6722185283295122  0.7577869554534673  0.15098439014471454  1.0000
  H   H15       1.0  0.9062738656843169  0.6118089516149159  0.2792959318136998  1.0000
  H   H16       1.0  0.9062419797072097  0.6154364754445121  0.8626576593001684  1.0000
  H   H17       1.0  0.13641626097738913  0.5235302268815214  0.07742533568884946  1.0000
  H   H18       1.0  0.77250949671848  0.6203244659219773  0.9876815714844123  1.0000
  H   H19       1.0  0.6434398218920911  0.65033566148054  0.13827948446087812  1.0000
  H   H20       1.0  0.6492344468775856  0.7965639364034045  0.24404736782672082  1.0000
  H   H21       1.0  0.6523230303427235  0.8350822647721545  0.06923595779611946  1.0000
  Zn  Zn1       1.0  0.9339905493175027  0.5683847059523033  0.5739324198698346  1.0000
  Zn  Zn2       1.0  0.11965815690090759  0.5663093228718156  0.5744847315246357  1.0000
  C   C30       1.0  0.026787277049622457  0.5615116103640052  0.811380679962763  1.0000
  C   C31       1.0  0.02686346753801437  0.5731842152210612  0.33703660905668786  1.0000
  C   C32       1.0  0.028400111879525607  0.8307202193495578  0.5696321589226712  1.0000
  C   C33       1.0  0.025250558984327712  0.30397387440493495  0.578785195208638  1.0000
  O   O3        1.0  0.09733245780990724  0.5743001226863069  0.3856343527027417  1.0000
  O   O4        1.0  0.09723569837571672  0.55881944745139  0.7632017517822587  1.0000
  O   O5        1.0  0.098537133037218  0.7762088139136882  0.5679881112117373  1.0000
  O   O6        1.0  0.09603095985635268  0.3569107672851448  0.5808478957377825  1.0000
  O   O7        1.0  0.9576176830028249  0.777783262248773  0.5675692554613836  1.0000
  O   O8        1.0  0.9563162587058742  0.560395628326847  0.7627828307247428  1.0000
  O   O9        1.0  0.956413017927769  0.575876253909541  0.38521387019827147  1.0000
  O   O10       1.0  0.9551115199070348  0.3584868881570411  0.5804275105734891  1.0000
