data_image0
_chemical_formula_structural       NC9NC3OH6C7NC2NH8C9H10Zn2C4O8
_chemical_formula_sum              "N4 C34 O9 H24 Zn2"
_cell_length_a       15.78231758774541
_cell_length_b       9.273995741505848
_cell_length_c       9.272679976505533
_cell_angle_alpha    86.1595600704732
_cell_angle_beta     90.48255963298988
_cell_angle_gamma    90.21461439936415

_space_group_name_H-M_alt    "P 1"
_space_group_IT_number       1

loop_
  _space_group_symop_operation_xyz
  'x, y, z'

loop_
  _atom_site_type_symbol
  _atom_site_label
  _atom_site_symmetry_multiplicity
  _atom_site_fract_x
  _atom_site_fract_y
  _atom_site_fract_z
  _atom_site_occupancy
  N   N1        1.0  0.8007466077167213  0.5565890045765114  0.4163512904137119  1.0000
  C   C1        1.0  0.7517790921831912  0.46568006897972625  0.442853480365315  1.0000
  C   C2        1.0  0.6909842322109095  0.3528399856008061  0.47574952899124123  1.0000
  C   C3        1.0  0.7099674628068673  0.2110939519320829  0.5169841105896971  1.0000
  C   C4        1.0  0.6329079799357987  0.1423989371577321  0.5370507658570676  1.0000
  C   C5        1.0  0.5716303171717563  0.24730759127869065  0.5065782834452683  1.0000
  C   C6        1.0  0.47844675911979195  0.2279123992842756  0.5123140538907462  1.0000
  C   C7        1.0  0.425271107008546  0.34683804286779685  0.4775864656885544  1.0000
  C   C8        1.0  0.33698874329598966  0.3309345139989588  0.4822976093838766  1.0000
  C   C9        1.0  0.2831331246248067  0.4533202876569644  0.4465504492236554  1.0000
  N   N2        1.0  0.23984602050538242  0.5517026483341438  0.41781291510310625  1.0000
  C   C10       1.0  0.3011999061902461  0.195928355450536  0.5217902841261635  1.0000
  C   C11       1.0  0.35344582301602867  0.07724862597786242  0.5564509110410039  1.0000
  C   C12       1.0  0.44154043419012273  0.09271524810570984  0.5518677780272183  1.0000
  O   O1        1.0  0.6086844038301008  0.3716371178479574  0.4703562367049216  1.0000
  H   H1        1.0  0.7721985341710635  0.1632916528288264  0.5308334400536823  1.0000
  H   H2        1.0  0.6236345419992239  0.029445360065328826  0.5699264236940562  1.0000
  H   H3        1.0  0.4523793842891714  0.451896730853935  0.44684892044035607  1.0000
  H   H4        1.0  0.23301934097151053  0.1824588741028097  0.5257780216342166  1.0000
  H   H5        1.0  0.3256106694284226  0.9729081774667738  0.5869787887318818  1.0000
  H   H6        1.0  0.4801768089702973  0.9987126177878413  0.5793305940793965  1.0000
  C   C13       1.0  0.017762080834513794  0.1306765660848912  0.4160204775694749  1.0000
  C   C14       1.0  0.032104585925663454  0.21270263263131417  0.2856880115523561  1.0000
  C   C15       1.0  0.05405070578728433  0.14633700028155205  0.16078839535478884  1.0000
  C   C16       1.0  0.06257651059850783  0.9958108587937924  0.16265454912086574  1.0000
  C   C17       1.0  0.046449951797970616  0.9125174253491913  0.29178677123285035  1.0000
  C   C18       1.0  0.02283861733217751  0.9776039672997169  0.4181561470872188  1.0000
  C   C19       1.0  0.0868621183918849  0.927463739503359  0.02876232604420048  1.0000
  N   N3        1.0  0.08941216843870389  0.0006643241241390741  0.8977671799608848  1.0000
  C   C20       1.0  0.11445513899641785  0.901767544292648  0.8071777002709029  1.0000
  C   C21       1.0  0.12685811548159953  0.771331777481318  0.883754630549749  1.0000
  N   N4        1.0  0.10954123051563758  0.7876465252396867  0.023091886830196355  1.0000
  H   H7        1.0  0.9499010742904928  0.3977053397842443  0.6232858740678698  1.0000
  H   H8        1.0  0.028398892120352168  0.3295502807672641  0.28102578177391413  1.0000
  H   H9        1.0  0.06560781094814966  0.21361918285221473  0.06288970708208351  1.0000
  H   H10       1.0  0.049327155196530165  0.7959394040354744  0.293794282651368  1.0000
  H   H11       1.0  0.024928870811465432  0.681481776223061  0.6579126580367608  1.0000
  H   H12       1.0  0.12335857732529158  0.9237639091727565  0.6922630960009317  1.0000
  H   H13       1.0  0.1474923691786082  0.6716462926062673  0.8410848047068678  1.0000
  H   H14       1.0  0.11449107134087622  0.707729746337554  0.10738093228335366  1.0000
  C   C22       1.0  0.0185621323851779  0.5507542117157005  0.9937113500955643  1.0000
  C   C23       1.0  0.07560573201944343  0.46091229320937344  0.07394428635852468  1.0000
  C   C24       1.0  0.13689170754506108  0.38270961363652645  0.005353346942733151  1.0000
  C   C25       1.0  0.1432069252092979  0.3917763936817416  0.8545349744936499  1.0000
  C   C26       1.0  0.08513461205093176  0.479672496212048  0.7729094410504347  1.0000
  C   C27       1.0  0.022038552601469478  0.5575263961268346  0.8404653547448636  1.0000
  C   C28       1.0  0.21233774550238949  0.3041334621553764  0.7883995185910808  1.0000
  C   C29       1.0  0.1917678956743839  0.23836360685094096  0.6460660769732476  1.0000
  C   C30       1.0  0.2521350989217699  0.36682181916230344  0.6487715798270837  1.0000
  H   H15       1.0  0.891575665411428  0.6496737360706888  0.2664834727793015  1.0000
  H   H16       1.0  0.07422085752463475  0.4536531473172385  0.19099608046952965  1.0000
  H   H17       1.0  0.18035325137466174  0.31557900926253946  0.07096369209362319  1.0000
  H   H18       1.0  0.08706720004168367  0.4858854079639157  0.6561525664233359  1.0000
  H   H19       1.0  0.8304994723945557  0.6953289746915376  0.7254644667720481  1.0000
  H   H20       1.0  0.2562306999888211  0.23876994277813315  0.86056960275253  1.0000
  H   H21       1.0  0.1289823519540444  0.2636723922229842  0.5962370495064507  1.0000
  H   H22       1.0  0.22405461136257254  0.13418236610432155  0.6316198269509297  1.0000
  H   H23       1.0  0.22605965487172075  0.47009542400739085  0.6004692698944174  1.0000
  H   H24       1.0  0.31971364174397077  0.3377092188428384  0.6359027578212406  1.0000
  Zn  Zn1       1.0  0.9274612205983432  0.5551751223221189  0.4167813928901049  1.0000
  Zn  Zn2       1.0  0.11313135697098614  0.5531048552733651  0.4173945686617086  1.0000
  C   C31       1.0  0.02134511822727636  0.5505014965859105  0.6803961814477981  1.0000
  C   C32       1.0  0.019249498341402656  0.5577802790453328  0.15377993289511283  1.0000
  C   C33       1.0  0.021851094179497595  0.8174708026445565  0.41200724807267974  1.0000
  C   C34       1.0  0.018743448963516304  0.2908092417592408  0.42216893855734217  1.0000
  O   O2        1.0  0.08994099605101863  0.5593463446712961  0.2077330926724119  1.0000
  O   O3        1.0  0.09157294968525324  0.5473630549766331  0.6269079901244785  1.0000
  O   O4        1.0  0.09198058797447305  0.7629441684873897  0.4101820281720283  1.0000
  O   O5        1.0  0.08953329402317456  0.3437652413182106  0.42445894634108194  1.0000
  O   O6        1.0  0.9510592201860285  0.7645147369852625  0.40971701499390534  1.0000
  O   O7        1.0  0.9506515919623466  0.5489353554099423  0.6264429044424178  1.0000
  O   O8        1.0  0.9490196309666457  0.5609185809887873  0.2072662734737174  1.0000
  O   O9        1.0  0.948611929317299  0.34533746818602107  0.42399223520934104  1.0000
