data_image0
_chemical_formula_structural       NC5NC3F3CH3C7NH5C6OCH7Zn2C4O8
_chemical_formula_sum              "N3 C27 F3 H15 O9 Zn2"
_cell_length_a       13.85151926108384
_cell_length_b       9.275154477615127
_cell_length_c       9.273891588657152
_cell_angle_alpha    86.29931945807607
_cell_angle_beta     89.68013377981825
_cell_angle_gamma    89.43371178103573

_space_group_name_H-M_alt    "P 1"
_space_group_IT_number       1

loop_
  _space_group_symop_operation_xyz
  'x, y, z'

loop_
  _atom_site_type_symbol
  _atom_site_label
  _atom_site_symmetry_multiplicity
  _atom_site_fract_x
  _atom_site_fract_y
  _atom_site_fract_z
  _atom_site_occupancy
  N   N1        1.0  0.904653523721814  0.5636007759109425  0.4162806656873965  1.0000
  C   C1        1.0  0.8321470302883223  0.5550863024276868  0.4787059056827401  1.0000
  C   C2        1.0  0.7419432378280167  0.5444931331163416  0.5563718348266948  1.0000
  C   C3        1.0  0.6546428023230179  0.5530312874548098  0.480890195985048  1.0000
  C   C4        1.0  0.566891248487481  0.544493119792633  0.5563718147178103  1.0000
  C   C5        1.0  0.47712777770476245  0.5550863194223772  0.4787059998061196  1.0000
  N   N2        1.0  0.4049753379593943  0.5636007389816259  0.4162807709809835  1.0000
  C   C6        1.0  0.5664368170730972  0.5264206314828503  0.7075071464312128  1.0000
  C   C7        1.0  0.6537626875713684  0.5147047513377685  0.7842381384733099  1.0000
  C   C8        1.0  0.6532470161999477  0.500601502577833  0.9471834119732004  1.0000
  F   F1        1.0  0.7344816185857329  0.42626854589666824  0.9984841574205845  1.0000
  F   F2        1.0  0.5726128037508955  0.4262685161995452  0.9984842565874548  1.0000
  F   F3        1.0  0.6521499732688577  0.6368526478362726  0.9994369117253553  1.0000
  C   C9        1.0  0.7415071444712023  0.5264205364271322  0.7075071656687559  1.0000
  H   H1        1.0  0.6549864925450826  0.5671838142726253  0.36387649694708696  1.0000
  H   H2        1.0  0.4981289979047088  0.5217637873362537  0.7651337406863021  1.0000
  H   H3        1.0  0.8094457521162411  0.5217637060846514  0.7651336993281235  1.0000
  C   C10       1.0  0.15761904794856707  0.14019642927533038  0.4146126882390262  1.0000
  C   C11       1.0  0.13160215500408268  0.22222899555130238  0.28752152743421494  1.0000
  C   C12       1.0  0.0977071356831063  0.15510478498840907  0.1671625738126308  1.0000
  C   C13       1.0  0.08926877043219639  0.0050322055611538045  0.17247729331753203  1.0000
  C   C14       1.0  0.1161914304011751  0.9217658302665485  0.2966715124971171  1.0000
  C   C15       1.0  0.15201907095133738  0.9869941547752049  0.4179611640959324  1.0000
  C   C16       1.0  0.07041166508305308  0.24070534504733998  0.0385396329943526  1.0000
  N   N3        1.0  0.04847368837783496  0.30951258651211216  0.9351597350465345  1.0000
  H   H4        1.0  0.1749949236326561  0.22005937723985516  0.7684325225063937  1.0000
  H   H5        1.0  0.13556105415979225  0.33914981278925915  0.2832446116677237  1.0000
  H   H6        1.0  0.0627039086818173  0.9520711354056479  0.07997387825641146  1.0000
  H   H7        1.0  0.11112246000670381  0.8052970898686262  0.2965446578080895  1.0000
  H   H8        1.0  0.1678199398952942  0.6903625667472126  0.6550305178303804  1.0000
  C   C17       1.0  0.15642586357840113  0.559776687962182  0.9929964729665316  1.0000
  C   C18       1.0  0.23508408215184792  0.620676329423681  0.0618109947207528  1.0000
  C   C19       1.0  0.3081950151549099  0.6923424318134217  0.9822846428493599  1.0000
  C   C20       1.0  0.3029084715672468  0.7034701803750459  0.8308880310212925  1.0000
  C   C21       1.0  0.2262842662579283  0.6416975108768801  0.760727859491388  1.0000
  C   C22       1.0  0.15321222906024312  0.5674138192200543  0.839577312197888  1.0000
  O   O1        1.0  0.3842284701068288  0.7514668494455449  0.05772505235486314  1.0000
  C   C23       1.0  0.46322606083177675  0.8273476172361904  0.9909487416128396  1.0000
  H   H9        1.0  0.9273801255056633  0.4712202915716777  0.1036635095743006  1.0000
  H   H10       1.0  0.3581572633871418  0.7585277510532928  0.7661836127211132  1.0000
  H   H11       1.0  0.22545614969239458  0.6491285089303325  0.6436760670971098  1.0000
  H   H12       1.0  0.0005106591045300731  0.5020768077245953  0.5638762863806068  1.0000
  H   H13       1.0  0.4366661948489579  0.9249175753873757  0.9269389738712142  1.0000
  H   H14       1.0  0.5039530172327368  0.7557897391375016  0.9202531230493817  1.0000
  H   H15       1.0  0.5124168084704712  0.8618111181812347  0.0759285696755958  1.0000
  Zn  Zn1       1.0  0.04903558585898263  0.5635969910595782  0.4162889892243642  1.0000
  Zn  Zn2       1.0  0.26059329152560595  0.5635928695000861  0.41628415378816197  1.0000
  C   C24       1.0  0.15385552225386134  0.5602263456789822  0.6795327118585004  1.0000
  C   C25       1.0  0.1557756527664267  0.5669653353444895  0.1530405797729315  1.0000
  C   C26       1.0  0.1530944168954409  0.826879521567657  0.41158414911610364  1.0000
  C   C27       1.0  0.15653669709908025  0.30031042786729434  0.4209892125167363  1.0000
  O   O2        1.0  0.2358425244345404  0.5693700567305207  0.20675098414226506  1.0000
  O   O3        1.0  0.234356062842898  0.5578174046713223  0.625818218263311  1.0000
  O   O4        1.0  0.23374037267014414  0.773143230033355  0.4094478640211887  1.0000
  O   O5        1.0  0.23645814275903584  0.3540442407091109  0.4231212303483616  1.0000
  O   O6        1.0  0.07317066243130887  0.7731456198534612  0.40945191265823877  1.0000
  O   O7        1.0  0.07378634143558616  0.5578215260828567  0.6258221968930273  1.0000
  O   O8        1.0  0.07527281000229634  0.5693741122637779  0.20675322953753583  1.0000
  O   O9        1.0  0.07588842798080653  0.3540482869046528  0.4231235837737324  1.0000
