data_image0
_chemical_formula_structural       NC9NC3OH6C8NH6C6NCOCH7Zn2C4O8
_chemical_formula_sum              "N4 C32 O10 H19 Zn2"
_cell_length_a       15.78231758774541
_cell_length_b       9.27426342843186
_cell_length_c       10.300272075376752
_cell_angle_alpha    85.50073118393561
_cell_angle_beta     90.08212328067073
_cell_angle_gamma    90.24871893605766

_space_group_name_H-M_alt    "P 1"
_space_group_IT_number       1

loop_
  _space_group_symop_operation_xyz
  'x, y, z'

loop_
  _atom_site_type_symbol
  _atom_site_label
  _atom_site_symmetry_multiplicity
  _atom_site_fract_x
  _atom_site_fract_y
  _atom_site_fract_z
  _atom_site_occupancy
  N   N1        1.0  0.8078235319791364  0.5701479382138203  0.5690071779609981  1.0000
  C   C1        1.0  0.758715033140859  0.4789978094872147  0.5931421779295234  1.0000
  C   C2        1.0  0.6977451770141618  0.36585834356161134  0.6230999297813042  1.0000
  C   C3        1.0  0.7165089478158909  0.2237369727106966  0.6606522875090695  1.0000
  C   C4        1.0  0.6393427648065381  0.15485936430676286  0.6789261779468683  1.0000
  C   C5        1.0  0.5782273384062694  0.2600454285365672  0.6511744138397513  1.0000
  C   C6        1.0  0.4850133651801506  0.24059809765795362  0.6563970530759444  1.0000
  C   C7        1.0  0.43202238391757536  0.35983974899669025  0.6247719254113193  1.0000
  C   C8        1.0  0.34371504770626654  0.34389340116603995  0.6290615247596463  1.0000
  C   C9        1.0  0.2900495107340245  0.4666044533722966  0.5965080015328208  1.0000
  N   N2        1.0  0.24691521367165978  0.5652483079616244  0.5703378813493014  1.0000
  C   C10       1.0  0.307716283093471  0.2085279267467619  0.6650253531403467  1.0000
  C   C11       1.0  0.3597778909234858  0.0895328024979394  0.6965894536470119  1.0000
  C   C12       1.0  0.44789679438508273  0.10504107906310177  0.6924164246344817  1.0000
  O   O1        1.0  0.6154741424588294  0.384704624869809  0.6181875112334714  1.0000
  H   H1        1.0  0.7786662422788424  0.17580856744543152  0.6732654422547459  1.0000
  H   H2        1.0  0.62989437540618  0.041606549837789795  0.708865890593858  1.0000
  H   H3        1.0  0.45929404363962545  0.4651780921765803  0.5967809686339218  1.0000
  H   H4        1.0  0.23951457718422176  0.1950221996241686  0.668656298385742  1.0000
  H   H5        1.0  0.33178046992219207  0.9849146067375375  0.7243894732941196  1.0000
  H   H6        1.0  0.4863871456889278  0.010788557455743373  0.717425664624008  1.0000
  C   C13       1.0  0.02469228018244227  0.14414444985605224  0.5699403800719309  1.0000
  C   C14       1.0  0.013745051724862057  0.22767298343786924  0.4512238031976228  1.0000
  C   C15       1.0  0.011107878273390877  0.16283731574068172  0.3336067584118001  1.0000
  C   C16       1.0  0.020041434180350533  0.012956521776343436  0.3317991458554592  1.0000
  C   C17       1.0  0.028714865606723528  0.9279490703813821  0.4497127792067767  1.0000
  C   C18       1.0  0.030054484779133736  0.9912406674652172  0.569415942296186  1.0000
  C   C19       1.0  0.01593409663123424  0.9430643419730854  0.20507978202027632  1.0000
  C   C20       1.0  0.9280268545827207  0.9051202554125474  0.17595133475348068  1.0000
  N   N3        1.0  0.8586435426422254  0.8751704476260358  0.15296946005885292  1.0000
  H   H7        1.0  0.0977986565555588  0.22147773635364004  0.8695627087975745  1.0000
  H   H8        1.0  0.0028883646893180788  0.22989229270039327  0.24358545748250937  1.0000
  H   H9        1.0  0.032373270159602195  0.8114193570487934  0.4480132853234531  1.0000
  H   H10       1.0  0.07597717569322726  0.6931533825411532  0.7728924348834286  1.0000
  H   H11       1.0  0.05507859189253336  0.843510289876632  0.2102239922396847  1.0000
  H   H12       1.0  0.040957979526143634  0.017629868755061343  0.12434003107965896  1.0000
  C   C21       1.0  0.027381257182070174  0.567838933011811  0.18832535098551784  1.0000
  C   C22       1.0  0.9408854965032352  0.6029263449056723  0.18460237904487342  1.0000
  C   C23       1.0  0.8975681625518023  0.6225526364692335  0.06531134648774639  1.0000
  C   C24       1.0  0.9408919787195354  0.6025974078935583  0.9494686496577973  1.0000
  C   C25       1.0  0.02736552746034303  0.567546090588587  0.9510309844088248  1.0000
  C   C26       1.0  0.07022904403271729  0.5508886591940059  0.07096145523175079  1.0000
  N   N4        1.0  0.808699763974644  0.6562558727418912  0.06003949110650253  1.0000
  C   C27       1.0  0.7672090192662427  0.7465117224238098  0.14730837283724152  1.0000
  O   O2        1.0  0.8097522461384926  0.823185858781943  0.21965084525937195  1.0000
  C   C28       1.0  0.6728297125862404  0.7581741220473344  0.14590315040399982  1.0000
  H   H13       1.0  0.9068342932452476  0.6121639653893816  0.27463667110296597  1.0000
  H   H14       1.0  0.9068036685617508  0.6157922882100277  0.857987912496005  1.0000
  H   H15       1.0  0.1369459939387312  0.5238657965629128  0.07302126253823671  1.0000
  H   H16       1.0  0.7730728851321281  0.6206813553063726  0.9829976949523037  1.0000
  H   H17       1.0  0.644013645228011  0.6506991610700723  0.13350885448059757  1.0000
  H   H18       1.0  0.6498591139288055  0.7969596439365405  0.23885403535712554  1.0000
  H   H19       1.0  0.652961090254678  0.8354864562742664  0.06393128028539441  1.0000
  Zn  Zn1       1.0  0.9345358782254222  0.5687301551903885  0.5693986857492751  1.0000
  Zn  Zn2       1.0  0.12020276419608428  0.5666543149902277  0.5699569967198375  1.0000
  C   C29       1.0  0.027330216175432073  0.5618555457479792  0.8068668139191266  1.0000
  C   C30       1.0  0.02741046524003575  0.5735307215893348  0.3324890009810648  1.0000
  C   C31       1.0  0.02903665510398755  0.8311234500763821  0.5643400907890286  1.0000
  C   C32       1.0  0.02570395198553775  0.30426108504890914  0.5750157942292287  1.0000
  O   O3        1.0  0.09787984351405418  0.5746468748420981  0.3810835188702417  1.0000
  O   O4        1.0  0.09777770143382836  0.559162789865015  0.7586956679815938  1.0000
  O   O5        1.0  0.09915472259228815  0.7766000380687805  0.5628536193524909  1.0000
  O   O6        1.0  0.09650275906738742  0.3572096377019045  0.5769254699318895  1.0000
  O   O7        1.0  0.9582358199951327  0.7781748331886664  0.5624302123398672  1.0000
  O   O8        1.0  0.95685880980363  0.5607393179068785  0.7582721906535487  1.0000
  O   O9        1.0  0.9569609516542956  0.5762233532208025  0.38065848023877136  1.0000
  O   O10       1.0  0.95558386713685  0.35878610572699166  0.5765005286705194  1.0000
