data_image0
_chemical_formula_structural       NC7NC8NOH9C6H6C12H10Zn2C4O8
_chemical_formula_sum              "N3 C37 O9 H25 Zn2"
_cell_length_a       21.38721084674475
_cell_length_b       10.302888698854447
_cell_length_c       13.024585202197207
_cell_angle_alpha    85.80961696087208
_cell_angle_beta     93.68759365923059
_cell_angle_gamma    89.50343287302618

_space_group_name_H-M_alt    "P 1"
_space_group_IT_number       1

loop_
  _space_group_symop_operation_xyz
  'x, y, z'

loop_
  _atom_site_type_symbol
  _atom_site_label
  _atom_site_symmetry_multiplicity
  _atom_site_fract_x
  _atom_site_fract_y
  _atom_site_fract_z
  _atom_site_occupancy
  N   N1        1.0  0.5406969728842534  0.4052947361275612  0.8607579283689428  1.0000
  C   C1        1.0  0.48647784673535144  0.4065411826357117  0.856447980064531  1.0000
  C   C2        1.0  0.41903673825363  0.40809070091501815  0.8510865443743972  1.0000
  C   C3        1.0  0.3857626547669274  0.5229345547715978  0.8182574895936832  1.0000
  C   C4        1.0  0.3202412595470022  0.5244724833433693  0.8132505470491134  1.0000
  C   C5        1.0  0.2874394853760224  0.41091988484131114  0.8391096175114932  1.0000
  C   C6        1.0  0.3210034332196773  0.29672517146709176  0.8746563901001977  1.0000
  C   C7        1.0  0.38651783218067837  0.2951173954826365  0.8797070462928269  1.0000
  N   N2        1.0  0.22034852936336535  0.41677290727538724  0.8375041771992928  1.0000
  C   C8        1.0  0.18135632506754698  0.3325987143576846  0.8005345151122811  1.0000
  C   C9        1.0  0.1133068756564557  0.34775778824920156  0.8132422029243261  1.0000
  C   C10       1.0  0.0706686778251206  0.2586102682071645  0.772491203001286  1.0000
  C   C11       1.0  0.006452595354124986  0.27209631910893206  0.7841655020400922  1.0000
  C   C12       1.0  0.9839220324397481  0.37471383725788215  0.8366955936219473  1.0000
  C   C13       1.0  0.025858408644805715  0.4639219347115111  0.8775917615295923  1.0000
  C   C14       1.0  0.09009759079291552  0.45070079129655416  0.8660477968990945  1.0000
  C   C15       1.0  0.9177992644410974  0.388449359043892  0.8486474761277327  1.0000
  N   N3        1.0  0.8646421563251132  0.3994917159179885  0.8582558639460225  1.0000
  O   O1        1.0  0.20200207010986362  0.22971079555289098  0.7463723631928876  1.0000
  H   H1        1.0  0.4104281143625472  0.611266776686483  0.7969397807065093  1.0000
  H   H2        1.0  0.2949117888790937  0.6139505820362111  0.788522761483053  1.0000
  H   H3        1.0  0.2964906832326661  0.20960538496386086  0.8994199780819774  1.0000
  H   H4        1.0  0.4117725842638656  0.20619983931542357  0.9065967147176179  1.0000
  H   H5        1.0  0.0868103394454944  0.1782763087085928  0.7315316341698237  1.0000
  H   H6        1.0  0.9743888345085494  0.20243828423793547  0.7522102463803466  1.0000
  H   H7        1.0  0.008919964128846002  0.5437379569968308  0.9184350984001093  1.0000
  H   H8        1.0  0.12146869446008271  0.521127160821041  0.8985152233749384  1.0000
  H   H9        1.0  0.24614139254338288  0.2223377686309964  0.7235786606424222  1.0000
  C   C16       1.0  0.7026096383008253  0.021146950425698703  0.8594780136012123  1.0000
  C   C17       1.0  0.7663708909558071  0.01583341650996936  0.8931369684134387  1.0000
  C   C18       1.0  0.7980070334516821  0.8963177890995229  0.909837243563898  1.0000
  C   C19       1.0  0.7665360711244416  0.7808153624198829  0.8932240615307703  1.0000
  C   C20       1.0  0.7027358657904426  0.7836294625491951  0.8595446307319655  1.0000
  C   C21       1.0  0.6711068524089934  0.9043642953721238  0.8428480217659011  1.0000
  H   H10       1.0  0.6784518050015613  0.3504552721278935  0.8467241253359021  1.0000
  H   H11       1.0  0.7918765021748702  0.10396452300520996  0.90660114368348  1.0000
  H   H12       1.0  0.8471444699236949  0.8931943860407358  0.9357761873242288  1.0000
  H   H13       1.0  0.792154411565235  0.6894038692588064  0.9067475510617735  1.0000
  H   H14       1.0  0.6219426348517928  0.9075322645611635  0.8168948488871262  1.0000
  H   H15       1.0  0.5825658816685721  0.5817660798696582  0.7961073320863903  1.0000
  C   C22       1.0  0.6898602254076404  0.4010595557536756  0.557391263979711  1.0000
  C   C23       1.0  0.6760586993492359  0.5050510047784236  0.4830772696721797  1.0000
  C   C24       1.0  0.6974151499564087  0.5026807532402879  0.384032043455383  1.0000
  C   C25       1.0  0.7325219007806801  0.3959720093005347  0.35730424338534206  1.0000
  C   C26       1.0  0.7469173192627174  0.292708620872451  0.43154053017178035  1.0000
  C   C27       1.0  0.7255923192359531  0.29496935660303847  0.5306287675019936  1.0000
  C   C28       1.0  0.7560288335799653  0.39435270539691  0.2529225055515598  1.0000
  C   C29       1.0  0.8212199206539933  0.3889521917800207  0.2447364022982328  1.0000
  C   C30       1.0  0.8463486292080568  0.3953865435804202  0.1483185975578094  1.0000
  C   C31       1.0  0.8068143762054647  0.4075686010701091  0.05877637870287744  1.0000
  C   C32       1.0  0.7419442590411484  0.41174949972711916  0.0652172702725442  1.0000
  C   C33       1.0  0.7154852575166049  0.4037168584732094  0.16163135500581288  1.0000
  H   H16       1.0  0.6661309739420522  0.3001118184184215  0.807507976675421  1.0000
  H   H17       1.0  0.6488721767134304  0.5884139599329481  0.5014773831998576  1.0000
  H   H18       1.0  0.6866676714544196  0.584149054528093  0.3281248489578668  1.0000
  H   H19       1.0  0.7743660219879537  0.21001179429051442  0.41245708977424833  1.0000
  H   H20       1.0  0.7371478201623929  0.21362443949017185  0.5862115868573807  1.0000
  H   H21       1.0  0.8527977192026649  0.38205147586957927  0.3134387929826177  1.0000
  H   H22       1.0  0.8966292200586318  0.391910440780566  0.14304882007633293  1.0000
  H   H23       1.0  0.8264533185933858  0.41294185963378993  0.9840582549471534  1.0000
  H   H24       1.0  0.712346623528648  0.41889372872704816  0.9943136311318784  1.0000
  H   H25       1.0  0.5616070326904811  0.45172062422501175  0.07828934800562348  1.0000
  Zn  Zn1       1.0  0.6341808150721567  0.4036166659516202  0.8600418289883895  1.0000
  Zn  Zn2       1.0  0.7711586873963329  0.40115921965026086  0.858980394773657  1.0000
  C   C34       1.0  0.7106393461221082  0.3980425743052231  0.04741662374020883  1.0000
  C   C35       1.0  0.694701656694061  0.40673492299799663  0.6716056895529321  1.0000
  C   C36       1.0  0.7025349256886071  0.6394860585505535  0.8554323029152449  1.0000
  C   C37       1.0  0.7028060324545107  0.1652898800317557  0.8635900654545698  1.0000
  O   O2        1.0  0.7483088730039714  0.4077013761070872  0.7095342848892909  1.0000
  O   O3        1.0  0.7609951527320975  0.3952099956050399  0.008682128148762016  1.0000
  O   O4        1.0  0.7544500753577943  0.5901786798790634  0.8536534363097679  1.0000
  O   O5        1.0  0.7548539003671287  0.21273270161961524  0.8645628999511807  1.0000
  O   O6        1.0  0.6504855553573065  0.5920431848222611  0.8544593241676695  1.0000
  O   O7        1.0  0.6570306306606067  0.3970760601091441  0.009487961286793743  1.0000
  O   O8        1.0  0.644344298509507  0.40956738992929187  0.7103388810830333  1.0000
  O   O9        1.0  0.650889329139756  0.2145987064952641  0.865367573278832  1.0000
