data_image0
_chemical_formula_structural       NC9NC3OH6C9H9C6SCNH5Zn2C4O8
_chemical_formula_sum              "N3 C32 O9 H20 S1 Zn2"
_cell_length_a       15.78231758774541
_cell_length_b       9.272676604525723
_cell_length_c       10.30221893075029
_cell_angle_alpha    85.8010258303436
_cell_angle_beta     90.10197945546608
_cell_angle_gamma    90.18380166211226

_space_group_name_H-M_alt    "P 1"
_space_group_IT_number       1

loop_
  _space_group_symop_operation_xyz
  'x, y, z'

loop_
  _atom_site_type_symbol
  _atom_site_label
  _atom_site_symmetry_multiplicity
  _atom_site_fract_x
  _atom_site_fract_y
  _atom_site_fract_z
  _atom_site_occupancy
  N   N1        1.0  0.8064611185588013  0.5695143124420594  0.5764638411071699  1.0000
  C   C1        1.0  0.7574183584104566  0.47838892133198474  0.6001778668694953  1.0000
  C   C2        1.0  0.6965301000566563  0.36528016087315107  0.6296130873330015  1.0000
  C   C3        1.0  0.715396352800927  0.22319734480085776  0.6665090776040146  1.0000
  C   C4        1.0  0.6382798534602838  0.1543384367942937  0.6844648514960956  1.0000
  C   C5        1.0  0.5770885880556134  0.2594959745153378  0.6571988660209884  1.0000
  C   C6        1.0  0.4838886571141646  0.2400539365143148  0.662331673524718  1.0000
  C   C7        1.0  0.43081166540641264  0.35926321573814857  0.6312572704358579  1.0000
  C   C8        1.0  0.342515845155867  0.3433212094042728  0.6354732084589789  1.0000
  C   C9        1.0  0.28876179334970364  0.4659989459261231  0.6034864351044922  1.0000
  N   N2        1.0  0.24555634148882838  0.5646160187402511  0.5777719089598592  1.0000
  C   C10       1.0  0.3066147354243101  0.20799249719345506  0.6708118308486489  1.0000
  C   C11       1.0  0.35876217686347844  0.08902967902193026  0.7018263444998221  1.0000
  C   C12       1.0  0.44686988043777076  0.10453373309815261  0.6977249534767551  1.0000
  O   O1        1.0  0.6142454909269431  0.3841213433015882  0.6247876940856778  1.0000
  H   H1        1.0  0.777588196319088  0.1752819311935796  0.6789008920517706  1.0000
  H   H2        1.0  0.6289131326952214  0.041116348733317036  0.7138815189597056  1.0000
  H   H3        1.0  0.4580073312444071  0.46457295043602587  0.6037528357391417  1.0000
  H   H4        1.0  0.23842278245399892  0.1944904466590447  0.6743803892117679  1.0000
  H   H5        1.0  0.33084023030867743  0.9844398962477173  0.7291431680974225  1.0000
  H   H6        1.0  0.4854282198757678  0.010306801865853431  0.7222988802929217  1.0000
  C   C13       1.0  0.023611763297039175  0.14360357582216546  0.5754521444723263  1.0000
  C   C14       1.0  0.9897141397297307  0.2080762503840052  0.6828784605453764  1.0000
  C   C15       1.0  0.9635690669677628  0.1242262955536522  0.7935010120325224  1.0000
  C   C16       1.0  0.9704779433066351  0.9733996527495322  0.8004197356069096  1.0000
  C   C17       1.0  0.0029872128538879173  0.9074928415509718  0.6919889704952928  1.0000
  C   C18       1.0  0.028413749055137275  0.9905155719206226  0.5787948120011879  1.0000
  C   C19       1.0  0.9413058333390445  0.8901039854586283  0.925053184366697  1.0000
  C   C20       1.0  0.8984819064782532  0.7444877823454767  0.9119985358082565  1.0000
  C   C21       1.0  0.9879571887985665  0.7509309042607758  0.9672010836164154  1.0000
  H   H7        1.0  0.042391156106827275  0.4422281954734342  0.3627525246938676  1.0000
  H   H8        1.0  0.9852434585241101  0.32464865433087287  0.6827403308393603  1.0000
  H   H9        1.0  0.9384826934071224  0.17794949071745747  0.8750038664311985  1.0000
  H   H10       1.0  0.05034574823418958  0.9134675682493749  0.2609539754709164  1.0000
  H   H11       1.0  0.9173349312283704  0.950491193168443  0.0067284178034381316  1.0000
  H   H12       1.0  0.8945332994182483  0.70528535759948  0.81300840110736  1.0000
  H   H13       1.0  0.849390484247702  0.7162502951678996  0.9867547606123459  1.0000
  H   H14       1.0  0.03833423848263326  0.7155141382749115  0.9018201329128037  1.0000
  H   H15       1.0  0.9911575874477669  0.726453079729647  0.07423768691323084  1.0000
  C   C22       1.0  0.025934127769007703  0.5671280047824023  0.19584833425617917  1.0000
  C   C23       1.0  0.1053517554998131  0.49904781424108885  0.19959955239819283  1.0000
  C   C24       1.0  0.1448296404802929  0.46471822482342123  0.08448700809239251  1.0000
  C   C25       1.0  0.10555733143035233  0.49886691417775314  0.9644452160858523  1.0000
  C   C26       1.0  0.02609134057958816  0.5669911447601108  0.9583986024951376  1.0000
  C   C27       1.0  0.9867014156838914  0.6006950559204416  0.07466842717097742  1.0000
  S   S1        1.0  0.24635545375916645  0.3783724363413954  0.09071661581956847  1.0000
  C   C28       1.0  0.2010477280497358  0.20365133479219333  0.10215586093730987  1.0000
  N   N3        1.0  0.17131909712798277  0.08911385278828556  0.10965519570460056  1.0000
  H   H16       1.0  0.9957218698125925  0.5931049519775378  0.5217511273136015  1.0000
  H   H17       1.0  0.13682145334380202  0.4721587440391739  0.2916608543465821  1.0000
  H   H18       1.0  0.13716793628771717  0.4718537803943161  0.8762392359032241  1.0000
  H   H19       1.0  0.9254493215299855  0.6531813964907942  0.07092852167877028  1.0000
  H   H20       1.0  0.8763475819625449  0.695536731261494  0.739774655738783  1.0000
  Zn  Zn1       1.0  0.933174490977244  0.5680969174878727  0.5768487976547341  1.0000
  Zn  Zn2       1.0  0.11884287603436249  0.5660216424294413  0.577397519668724  1.0000
  C   C29       1.0  0.026027172575459046  0.5612723357301295  0.8142375976624783  1.0000
  C   C30       1.0  0.025992232271782476  0.5728480209804667  0.34000886026935917  1.0000
  C   C31       1.0  0.02750062024076281  0.830432166311534  0.5729890521438958  1.0000
  C   C32       1.0  0.024518711441806822  0.3036864585777408  0.5812574679842843  1.0000
  O   O2        1.0  0.09647188151377145  0.5739738635168914  0.3885986620365778  1.0000
  O   O3        1.0  0.09646552527266244  0.5585703196531202  0.7660638851595777  1.0000
  O   O4        1.0  0.09765440333805747  0.7759202972126087  0.5712539808905901  1.0000
  O   O5        1.0  0.0952829401307504  0.3566238969986315  0.583408468808315  1.0000
  O   O6        1.0  0.9567343635213558  0.7774946636284428  0.570837848321068  1.0000
  O   O7        1.0  0.9555454952611325  0.5601464186000367  0.7656476901996377  1.0000
  O   O8        1.0  0.9555518509518104  0.5755499124923382  0.38818090586173226  1.0000
  O   O9        1.0  0.9543629095269154  0.3581999356426109  0.582990809936645  1.0000
