data_image0
_chemical_formula_structural       NC5NC3F3CH3C9H8C6BrH4Zn2C4O8
_chemical_formula_sum              "N2 C28 F3 H15 Br1 Zn2 O8"
_cell_length_a       13.85151926108384
_cell_length_b       9.275152443626249
_cell_length_c       9.276567756262418
_cell_angle_alpha    85.92079402595407
_cell_angle_beta     90.18621463620289
_cell_angle_gamma    90.57354708821606

_space_group_name_H-M_alt    "P 1"
_space_group_IT_number       1

loop_
  _space_group_symop_operation_xyz
  'x, y, z'

loop_
  _atom_site_type_symbol
  _atom_site_label
  _atom_site_symmetry_multiplicity
  _atom_site_fract_x
  _atom_site_fract_y
  _atom_site_fract_z
  _atom_site_occupancy
  N   N1        1.0  0.9160886491570548  0.5631683170371484  0.40525081895726345  1.0000
  C   C1        1.0  0.8438383207913167  0.5546975181598786  0.4677170928185814  1.0000
  C   C2        1.0  0.7539532350382251  0.5441586863334573  0.545434073563446  1.0000
  C   C3        1.0  0.6663196724718218  0.5526431505376979  0.46991584309821316  1.0000
  C   C4        1.0  0.5789012454013559  0.5441586729876253  0.5454340535604338  1.0000
  C   C5        1.0  0.48881906899101546  0.5546975352353758  0.4677171867827006  1.0000
  N   N2        1.0  0.4164104635263754  0.5631682801701852  0.40525092448734346  1.0000
  C   C6        1.0  0.5791008290901565  0.5261931976905994  0.6966498917131443  1.0000
  C   C7        1.0  0.6667249314049768  0.5145303741670235  0.7734405879628106  1.0000
  C   C8        1.0  0.6669859982903614  0.5005451983498623  0.9364327695338964  1.0000
  F   F1        1.0  0.747534997385081  0.42621437715896177  0.9882663537684644  1.0000
  F   F2        1.0  0.5856661827419692  0.4262143475231115  0.9882664531203871  1.0000
  F   F3        1.0  0.6680114867354044  0.636904778631824  0.9876578455158382  1.0000
  C   C9        1.0  0.7541711553371024  0.5261931026020037  0.6966499116484706  1.0000
  H   H1        1.0  0.6661591362772177  0.5667129048657941  0.35283862569114355  1.0000
  H   H2        1.0  0.5110721112655604  0.5215782766249353  0.7542906228692221  1.0000
  H   H3        1.0  0.8223888641509925  0.5215781953008378  0.7542905821279378  1.0000
  C   C10       1.0  0.16340955089182124  0.13955043276088852  0.4067218577134377  1.0000
  C   C11       1.0  0.12830841475587906  0.22109048914660323  0.28431337380599264  1.0000
  C   C12       1.0  0.10217607208238255  0.15442734488775156  0.1596130987769555  1.0000
  C   C13       1.0  0.11073339220659495  0.0050387596276744145  0.15485227902492849  1.0000
  C   C14       1.0  0.1439443588416656  0.92180042042891  0.2762262524806687  1.0000
  C   C15       1.0  0.16909874908315214  0.9867752478542686  0.40379229817731743  1.0000
  C   C16       1.0  0.0842878335964643  0.9366240015576455  0.025717301704215382  1.0000
  C   C17       1.0  0.06214583569233303  0.8793091995150694  0.9175870051270714  1.0000
  C   C18       1.0  0.03528089252242795  0.8097558236618316  0.7863898541467615  1.0000
  H   H4        1.0  0.30277659958095493  0.2240212918298596  0.6944792444570633  1.0000
  H   H5        1.0  0.12322190629529463  0.33760353452606573  0.2838601457969443  1.0000
  H   H6        1.0  0.07615500782988786  0.21975279412514045  0.0662954303191321  1.0000
  H   H7        1.0  0.14800004803643407  0.8054510080633259  0.27220677514303193  1.0000
  H   H8        1.0  0.25984250785054597  0.6934042310020874  0.6006086889905538  1.0000
  H   H9        1.0  0.05295985287074713  0.6931658813670725  0.7998506278118778  1.0000
  H   H10       1.0  0.9566606334605157  0.8221451235963085  0.7666645239541587  1.0000
  H   H11       1.0  0.07584168766986088  0.8611905564191776  0.6931248061484205  1.0000
  C   C19       1.0  0.1653047974995856  0.5590172270092257  0.9821446784700782  1.0000
  C   C20       1.0  0.07974791291269547  0.5937450100335482  0.052635423391889986  1.0000
  C   C21       1.0  0.998560848137416  0.640355392527072  0.9737732537143101  1.0000
  C   C22       1.0  0.0014061885073817218  0.6531820516194291  0.8232330584714034  1.0000
  C   C23       1.0  0.08505995536289368  0.6168959567142882  0.7510206392642544  1.0000
  C   C24       1.0  0.16720352725907314  0.5673084668737143  0.8283695321646816  1.0000
  Br  Br1       1.0  0.8902947158924427  0.7181357996659442  0.7157582206482451  1.0000
  H   H12       1.0  0.2972355332618445  0.4279910076823521  0.2734319453551879  1.0000
  H   H13       1.0  0.9336592873207288  0.667859288915222  0.029995529901679648  1.0000
  H   H14       1.0  0.08495749586947057  0.6242647126541973  0.6339446964862807  1.0000
  H   H15       1.0  0.32595122124232434  0.5524125631549963  0.5490263274344813  1.0000
  Zn  Zn1       1.0  0.06047071018932849  0.563164536680933  0.4052591676050594  1.0000
  Zn  Zn2       1.0  0.27202833238582547  0.5631604093416174  0.4052543644295403  1.0000
  C   C25       1.0  0.16680385472450857  0.5599943744638978  0.6684347709189251  1.0000
  C   C26       1.0  0.16569751059307736  0.5663323930492166  0.14207889618807945  1.0000
  C   C27       1.0  0.16800551147349263  0.8265754398758643  0.39860444608377676  1.0000
  C   C28       1.0  0.1644957701883163  0.2997495952344286  0.41190930383503943  1.0000
  O   O1        1.0  0.24611428151569634  0.5687795698866589  0.19575247965254827  1.0000
  O   O2        1.0  0.2469544157004916  0.5575429727489378  0.6147571309522366  1.0000
  O   O3        1.0  0.24792368980344232  0.7728105691469791  0.3968672293915976  1.0000
  O   O4        1.0  0.24514493504935891  0.3535119827509503  0.4136422731461362  1.0000
  O   O5        1.0  0.08735403533155518  0.7728129632745044  0.3968712588825183  1.0000
  O   O6        1.0  0.08638477269014103  0.5575470992821892  0.6147610776254018  1.0000
  O   O7        1.0  0.08554463434516602  0.5687836291774717  0.19575469419258962  1.0000
  O   O8        1.0  0.08457528804797487  0.35351603278233523  0.41364459574728407  1.0000
