data_image0
_chemical_formula_structural       NC5NC3OH4C6NCH9C9H8Zn2C4O8
_chemical_formula_sum              "N3 C28 O9 H21 Zn2"
_cell_length_a       13.84702359539666
_cell_length_b       9.273386996610926
_cell_length_c       9.275155815604963
_cell_angle_alpha    85.96204841331945
_cell_angle_beta     90.34320021190106
_cell_angle_gamma    89.39943260271846

_space_group_name_H-M_alt    "P 1"
_space_group_IT_number       1

loop_
  _space_group_symop_operation_xyz
  'x, y, z'

loop_
  _atom_site_type_symbol
  _atom_site_label
  _atom_site_symmetry_multiplicity
  _atom_site_fract_x
  _atom_site_fract_y
  _atom_site_fract_z
  _atom_site_occupancy
  N   N1        1.0  0.8917181592743463  0.5651977874689247  0.40733451642865703  1.0000
  C   C1        1.0  0.8198947187785801  0.5570683580897635  0.47039789441312974  1.0000
  C   C2        1.0  0.7304475573059788  0.5469455012102863  0.5489250876591478  1.0000
  C   C3        1.0  0.6424776885068019  0.556724817442446  0.47306218221912855  1.0000
  C   C4        1.0  0.5549975290501382  0.5470591215064219  0.548043268128904  1.0000
  C   C5        1.0  0.4647493510137065  0.5571276939584475  0.469937294194672  1.0000
  N   N2        1.0  0.3922014767308765  0.5652220551734459  0.40714631792910194  1.0000
  C   C6        1.0  0.5554830329120979  0.527584932025279  0.6991126477478612  1.0000
  C   C7        1.0  0.6430730216176075  0.5177964768666115  0.775043588523497  1.0000
  C   C8        1.0  0.730871073313591  0.5273998944477086  0.7005472097368808  1.0000
  O   O1        1.0  0.8181820967769853  0.5175947443610969  0.776609560352538  1.0000
  H   H1        1.0  0.6421061412923832  0.5718118618319574  0.35602662573571586  1.0000
  H   H2        1.0  0.48822836653421203  0.519977512215652  0.758126213001205  1.0000
  H   H3        1.0  0.6426650376807141  0.5027393632704171  0.8918477225304134  1.0000
  H   H4        1.0  0.8202700034979854  0.5035026794024243  0.8859265228489562  1.0000
  C   C9        1.0  0.1449370460967523  0.1415621751394589  0.407947495234916  1.0000
  C   C10       1.0  0.16135688536793702  0.22391578704740486  0.27762923020091845  1.0000
  C   C11       1.0  0.1686838579495915  0.15829040023272634  0.14730632973795177  1.0000
  C   C12       1.0  0.1596962219387717  0.007960521897215184  0.14396967136837935  1.0000
  C   C13       1.0  0.1449763783897815  0.9246401777073465  0.2738346220179  1.0000
  C   C14       1.0  0.13899192174639374  0.9888466470988719  0.40654580726586387  1.0000
  N   N3        1.0  0.16619572701665453  0.9372754879149384  0.010956493830167391  1.0000
  C   C15       1.0  0.18170402119565204  0.013960952725095016  0.870309022863363  1.0000
  H   H5        1.0  0.16564195009030128  0.40574660426131576  0.644555273908745  1.0000
  H   H6        1.0  0.16627526523901984  0.34054668398256527  0.2758592034346645  1.0000
  H   H7        1.0  0.1804592001647565  0.22604959896375698  0.04940499848339353  1.0000
  H   H8        1.0  0.14040873649414243  0.8082192971515125  0.27156273944060905  1.0000
  H   H9        1.0  0.1759955857393692  0.8605109879994233  0.7575601526689177  1.0000
  H   H10       1.0  0.15938051283043445  0.8249337851436601  0.013947661772090392  1.0000
  H   H11       1.0  0.12173296587120497  0.0923158525719101  0.8452906875556718  1.0000
  H   H12       1.0  0.2516041509832654  0.07151809291577214  0.8705152979918069  1.0000
  H   H13       1.0  0.18378695338709194  0.9357893169537779  0.7849863585603338  1.0000
  C   C16       1.0  0.14022064839357085  0.5615577643137208  0.984022100507334  1.0000
  C   C17       1.0  0.06417955871611158  0.6318495593115937  0.051749090859873885  1.0000
  C   C18       1.0  0.9945396527633742  0.7117296085155733  0.9703581461239698  1.0000
  C   C19       1.0  0.9996480217546643  0.7229905715640026  0.8197557682676998  1.0000
  C   C20       1.0  0.07375117719517266  0.6519235693650376  0.7503224263694714  1.0000
  C   C21       1.0  0.14370831979267362  0.5688510313179465  0.8304711295916327  1.0000
  C   C22       1.0  0.9280323615571612  0.806240981242228  0.7360473633702838  1.0000
  C   C23       1.0  0.868067122077228  0.875951830551476  0.6659263549165471  1.0000
  C   C24       1.0  0.795310081557143  0.9605341594594314  0.580834890453902  1.0000
  H   H14       1.0  0.3651914827170435  0.44517277369459  0.09708820411987196  1.0000
  H   H15       1.0  0.05986891532662387  0.6278502758327718  0.16854887672720653  1.0000
  H   H16       1.0  0.9371700789649399  0.7659506137657697  0.025102904226958597  1.0000
  H   H17       1.0  0.07548790881935652  0.6587074828096444  0.6331642364288745  1.0000
  H   H18       1.0  0.29385892525929336  0.4853128907467119  0.5569707048464729  1.0000
  H   H19       1.0  0.814905301346019  0.9646801338047118  0.4648216643042277  1.0000
  H   H20       1.0  0.7237452026454524  0.9091578211094709  0.5959732127009976  1.0000
  H   H21       1.0  0.7920844058700268  0.07193064674858315  0.6171562456638209  1.0000
  Zn  Zn1       1.0  0.03614689327160292  0.565201000101465  0.4072885230445067  1.0000
  Zn  Zn2       1.0  0.24777284996429305  0.5652071395218942  0.40720409285013387  1.0000
  C   C25       1.0  0.14308726156807783  0.5617252462929031  0.6704836824625575  1.0000
  C   C26       1.0  0.1408347804272687  0.5686847148946459  0.1440090709547277  1.0000
  C   C27       1.0  0.140087058130592  0.828642375003111  0.40106758278847754  1.0000
  C   C28       1.0  0.14383492413003135  0.3017658535653841  0.4134252503627309  1.0000
  O   O2        1.0  0.22135188057666388  0.5710726206429426  0.19767012932946004  1.0000
  O   O3        1.0  0.2231893717841491  0.5593409083125814  0.6167581304483671  1.0000
  O   O4        1.0  0.22076559311038274  0.7748798782548416  0.3992027217482359  1.0000
  O   O5        1.0  0.22377558651915844  0.3555336600876328  0.41522542997969336  1.0000
  O   O6        1.0  0.06014408449914256  0.7748744795351366  0.39926718593617583  1.0000
  O   O7        1.0  0.06256785069003667  0.5593372422113397  0.6168225149236124  1.0000
  O   O8        1.0  0.060730352759876816  0.5710688893384857  0.1977327811218701  1.0000
  O   O9        1.0  0.06315405921604778  0.35552991939563494  0.4152881898432299  1.0000
