data_image0
_chemical_formula_structural       NC9NC3OH6C6NH5C6NCOH6Zn2C4O8
_chemical_formula_sum              "N4 C29 O10 H17 Zn2"
_cell_length_a       15.78231758774541
_cell_length_b       9.274771166103584
_cell_length_c       10.29962270195845
_cell_angle_alpha    85.47454724786482
_cell_angle_beta     90.10253899755935
_cell_angle_gamma    90.23039320205511

_space_group_name_H-M_alt    "P 1"
_space_group_IT_number       1

loop_
  _space_group_symop_operation_xyz
  'x, y, z'

loop_
  _atom_site_type_symbol
  _atom_site_label
  _atom_site_symmetry_multiplicity
  _atom_site_fract_x
  _atom_site_fract_y
  _atom_site_fract_z
  _atom_site_occupancy
  N   N1        1.0  0.8071916471347561  0.5691256089183538  0.5673909511618389  1.0000
  C   C1        1.0  0.7581060237182712  0.47799061063242027  0.5916191813130998  1.0000
  C   C2        1.0  0.6971645616324906  0.3648699255243226  0.6216926544869732  1.0000
  C   C3        1.0  0.7159639813175659  0.22277208683270008  0.6593903760108484  1.0000
  C   C4        1.0  0.6388150926217802  0.15390593896337812  0.6777347162163274  1.0000
  C   C5        1.0  0.5776732916408484  0.25907461767094664  0.6498753666961827  1.0000
  C   C6        1.0  0.48446421617470936  0.23963056995365375  0.6551178977931404  1.0000
  C   C7        1.0  0.43144329734804815  0.35885238881521286  0.6233708068475308  1.0000
  C   C8        1.0  0.34313997886043196  0.3429087384701637  0.62767671711987  1.0000
  C   C9        1.0  0.2894436313428031  0.4655993749764751  0.5949976819406657  1.0000
  N   N2        1.0  0.2462845662753451  0.5642268170111033  0.5687266663271779  1.0000
  C   C10       1.0  0.307175214569402  0.20756582505586982  0.6637790012521059  1.0000
  C   C11       1.0  0.3592666990894068  0.08859049554987442  0.6954648129297851  1.0000
  C   C12       1.0  0.44738169490258883  0.10409614777950305  0.6912759210671531  1.0000
  O   O1        1.0  0.614888815549888  0.38371313678566116  0.6167609603688926  1.0000
  H   H1        1.0  0.7781332859475194  0.17485157930779383  0.6720525521102572  1.0000
  H   H2        1.0  0.6293951144519858  0.04067188807590538  0.707790265635537  1.0000
  H   H3        1.0  0.45868849768462544  0.4641731719906416  0.5952721068957116  1.0000
  H   H4        1.0  0.23897691096595988  0.1940623809710198  0.6674237609802627  1.0000
  H   H5        1.0  0.3312955566827534  0.9839897400624152  0.7233718391674997  1.0000
  H   H6        1.0  0.4858957125820799  0.009859311191636072  0.7163815649619334  1.0000
  C   C13       1.0  0.024141101120060297  0.14310890733378456  0.56875874902296  1.0000
  C   C14       1.0  0.004619669819432736  0.22659262650662132  0.4525665562047658  1.0000
  C   C15       1.0  0.9930086865054134  0.16162968343436973  0.3356616142081521  1.0000
  C   C16       1.0  0.0009633720477650899  0.01180474249856989  0.33410250200734937  1.0000
  C   C17       1.0  0.01891772322337082  0.927018490182507  0.44869460259108745  1.0000
  C   C18       1.0  0.029343143310768264  0.9902323913178209  0.567370151934163  1.0000
  N   N3        1.0  0.9740075380058412  0.24820662535456958  0.2181946371914345  1.0000
  H   H7        1.0  0.11955446167274125  0.22180954219131044  0.8532617050492237  1.0000
  H   H8        1.0  0.9924308992388499  0.9603795548290062  0.24415716355330663  1.0000
  H   H9        1.0  0.09017424865748437  0.6925587169210056  0.7609204727372689  1.0000
  H   H10       1.0  0.9681699678459554  0.3603456382394623  0.2181346997900182  1.0000
  H   H11       1.0  0.9655552842454048  0.20079853798930491  0.13038523509657973  1.0000
  C   C19       1.0  0.026660629046047605  0.5665309195534785  0.18670763708374327  1.0000
  C   C20       1.0  0.9379509933457046  0.578648543519154  0.1843258009701767  1.0000
  C   C21       1.0  0.8934294442577719  0.5871134463630084  0.06615989689516821  1.0000
  C   C22       1.0  0.9381402319149149  0.5789556071385048  0.949153671548157  1.0000
  C   C23       1.0  0.026823601400398852  0.5668103368850783  0.9494211924674766  1.0000
  C   C24       1.0  0.07060677468154769  0.5612455050465375  0.06869937234715895  1.0000
  N   N4        1.0  0.8025291772591514  0.5972751194855108  0.06775085391123659  1.0000
  C   C25       1.0  0.7533070194731958  0.676556362136751  0.9693970789996893  1.0000
  O   O2        1.0  0.7879492772995144  0.7595518336640871  0.8822542790188654  1.0000
  H   H12       1.0  0.19391952670291412  0.5421301145266175  0.398561848670058  1.0000
  H   H13       1.0  0.9029906753413904  0.5827921361631834  0.2743688926629859  1.0000
  H   H14       1.0  0.9037510250099883  0.5790669808492983  0.8581972861859795  1.0000
  H   H15       1.0  0.13899331782902047  0.551922802177391  0.06965806903888372  1.0000
  H   H16       1.0  0.7700823242281915  0.5527867540893208  0.14982381989172944  1.0000
  H   H17       1.0  0.6849233665166827  0.6683227016017133  0.9720988080684555  1.0000
  Zn  Zn1       1.0  0.9339043529662013  0.5677080733208089  0.5677839092496191  1.0000
  Zn  Zn2       1.0  0.11957176192812331  0.5656325841992995  0.5683443435186921  1.0000
  C   C26       1.0  0.02675561969362117  0.5610114011936294  0.8052614475534624  1.0000
  C   C27       1.0  0.026722533886141642  0.5723310536412298  0.3308669358138996  1.0000
  C   C28       1.0  0.028354369405327193  0.8301061427889714  0.5624575834027401  1.0000
  C   C29       1.0  0.02512371019219571  0.3032345798298963  0.5736708718505072  1.0000
  O   O3        1.0  0.09720308516116888  0.5734837016669021  0.3794608055786486  1.0000
  O   O4        1.0  0.09719232900740948  0.5582824166828331  0.7570925623809008  1.0000
  O   O5        1.0  0.09848239007510035  0.7755798348009864  0.5610267188760139  1.0000
  O   O6        1.0  0.09591296078032435  0.3561862945394822  0.575526551503809  1.0000
  O   O7        1.0  0.9575630907548337  0.7771543636904561  0.5606017010664199  1.0000
  O   O8        1.0  0.9562730403102168  0.5598586784981239  0.7566674724873399  1.0000
  O   O9        1.0  0.9562837958780446  0.5750599126460347  0.37903415441656674  1.0000
  O   O10       1.0  0.954993671451188  0.3577624952377121  0.5750999977233722  1.0000
