data_image0
_chemical_formula_structural       NC5NC3BrH3C6BrH5C6BrH4Zn2C4O8
_chemical_formula_sum              "N2 C24 Br3 H12 Zn2 O8"
_cell_length_a       13.839083392302014
_cell_length_b       9.276564384272257
_cell_length_c       9.27656775626242
_cell_angle_alpha    86.06955747846486
_cell_angle_beta     90.18696188566506
_cell_angle_gamma    90.61189963838827

_space_group_name_H-M_alt    "P 1"
_space_group_IT_number       1

loop_
  _space_group_symop_operation_xyz
  'x, y, z'

loop_
  _atom_site_type_symbol
  _atom_site_label
  _atom_site_symmetry_multiplicity
  _atom_site_fract_x
  _atom_site_fract_y
  _atom_site_fract_z
  _atom_site_occupancy
  N   N1        1.0  0.9171495922316152  0.5632715479810428  0.4092945312921237  1.0000
  C   C1        1.0  0.8447162780230212  0.49964895399751863  0.41181168472777396  1.0000
  C   C2        1.0  0.7544709538283898  0.42048044807659696  0.4149437362606696  1.0000
  C   C3        1.0  0.6674301783611747  0.49665774195897544  0.411930216771736  1.0000
  C   C4        1.0  0.5788777514556962  0.4219527314602857  0.41488543379362325  1.0000
  C   C5        1.0  0.4896504683477915  0.500480719139847  0.41177876168376604  1.0000
  N   N2        1.0  0.41792333811263904  0.5636110629948434  0.40928104388570197  1.0000
  C   C6        1.0  0.5772981589480287  0.2707590175003025  0.4208665374397136  1.0000
  C   C7        1.0  0.663893067615195  0.19446049117369002  0.42388476146831633  1.0000
  C   C8        1.0  0.7526366892454309  0.26845159022169907  0.4209578063922932  1.0000
  Br  Br1       1.0  0.8692944879029723  0.15839401786503982  0.42531168560381905  1.0000
  H   H1        1.0  0.6685991379574172  0.6138200722525304  0.4072951683096804  1.0000
  H   H2        1.0  0.509205346733356  0.21192394003523773  0.4231937388512197  1.0000
  H   H3        1.0  0.66196259679558  0.07754728937852073  0.4285095772479255  1.0000
  C   C9        1.0  0.16463063696198565  0.1399619660674738  0.4096563377719258  1.0000
  C   C10       1.0  0.15195170682869596  0.22216281698071708  0.2779640226119071  1.0000
  C   C11       1.0  0.14826831242843697  0.15589365640065944  0.14750154076779953  1.0000
  C   C12       1.0  0.15723681237835718  0.006480360962037415  0.14625415952225462  1.0000
  C   C13       1.0  0.1682089803882676  0.9225655193296246  0.2759551052396769  1.0000
  C   C14       1.0  0.17045149326377196  0.9869096187797987  0.40893168574030764  1.0000
  Br  Br2       1.0  0.15290705352774503  0.9163662941744786  0.9672368204697891  1.0000
  H   H4        1.0  0.1368217650224992  0.40478987062795  0.643910469683926  1.0000
  H   H5        1.0  0.14717761305019542  0.33879181288658833  0.2754973997156558  1.0000
  H   H6        1.0  0.13935954072540513  0.2211248318983663  0.047135844537637965  1.0000
  H   H7        1.0  0.1726728732603915  0.8062981368359599  0.27284846577508715  1.0000
  H   H8        1.0  0.22426056027998054  0.6912114160379331  0.6333436107005397  1.0000
  C   C15       1.0  0.16659023771256187  0.5592909410536946  0.9861708541755045  1.0000
  C   C16       1.0  0.08096125571950874  0.5939491525822969  0.05675429647131037  1.0000
  C   C17       1.0  0.9997078153170776  0.640488988180715  0.9780156329761684  1.0000
  C   C18       1.0  0.0025576413867318647  0.6533133243598663  0.8275087448309417  1.0000
  C   C19       1.0  0.08628155384679315  0.6170960263569147  0.755199623841937  1.0000
  C   C20       1.0  0.16849192078933498  0.5675807197332132  0.8324172361981543  1.0000
  Br  Br3       1.0  0.8913555017686272  0.7181701370967968  0.7202059639036524  1.0000
  H   H9        1.0  0.2986205794226864  0.42839769524336485  0.2771135348128382  1.0000
  H   H10       1.0  0.9347517362590124  0.6679397244309044  0.034311246912924524  1.0000
  H   H11       1.0  0.0861801022340185  0.6244622691156858  0.6381428625039156  1.0000
  H   H12       1.0  0.3273807871131724  0.5527974746642106  0.5530309733038448  1.0000
  Zn  Zn1       1.0  0.06166207307616412  0.5633657398368168  0.4092989696153364  1.0000
  Zn  Zn2       1.0  0.27341079474594343  0.5635051670392512  0.409288440462464  1.0000
  C   C21       1.0  0.168090794961369  0.5602687816533274  0.6724634493504076  1.0000
  C   C22       1.0  0.16698439797332165  0.5666039476853593  0.14612410047784508  1.0000
  C   C23       1.0  0.16933334774481712  0.826762257754013  0.40332692298651374  1.0000
  C   C24       1.0  0.16574176119981732  0.30010873969959406  0.4152607051468826  1.0000
  O   O1        1.0  0.24747417485466672  0.5691048800644634  0.19980188075176475  1.0000
  O   O2        1.0  0.24831338988654017  0.5578725793289185  0.6187772638471807  1.0000
  O   O3        1.0  0.2493156870821287  0.7730694455134022  0.40144761339376633  1.0000
  O   O4        1.0  0.24647180523170853  0.3539080230901381  0.41713142316419005  1.0000
  O   O5        1.0  0.08860099033094637  0.7729628837398459  0.40145598690962325  1.0000
  O   O6        1.0  0.08759870486596055  0.5577677493943571  0.6187855590539071  1.0000
  O   O7        1.0  0.08675948566010772  0.5689999829069401  0.19980844365046835  1.0000
  O   O8        1.0  0.0857571162050661  0.35380311667637176  0.41713809409989566  1.0000
