data_image0
_chemical_formula_structural       NC9NC3OH6C6NO2H4C7OCH10Zn2C4O8
_chemical_formula_sum              "N3 C30 O12 H20 Zn2"
_cell_length_a       15.78231758774541
_cell_length_b       9.273392599741051
_cell_length_c       10.300835455316065
_cell_angle_alpha    85.69422618191317
_cell_angle_beta     90.10164199731037
_cell_angle_gamma    89.0365174922554

_space_group_name_H-M_alt    "P 1"
_space_group_IT_number       1

loop_
  _space_group_symop_operation_xyz
  'x, y, z'

loop_
  _atom_site_type_symbol
  _atom_site_label
  _atom_site_symmetry_multiplicity
  _atom_site_fract_x
  _atom_site_fract_y
  _atom_site_fract_z
  _atom_site_occupancy
  N   N1        1.0  0.787999261208148  0.569341077131641  0.5731314938374936  1.0000
  C   C1        1.0  0.7400288332271056  0.4782039224701365  0.5970325582635503  1.0000
  C   C2        1.0  0.6804715997449238  0.36508056071426664  0.6266999392109822  1.0000
  C   C3        1.0  0.7010098346494288  0.22297937366831366  0.6638875517632044  1.0000
  C   C4        1.0  0.62470364291096  0.1541115899621044  0.6819846653950281  1.0000
  C   C5        1.0  0.5622749191273825  0.25928273958510517  0.6545028505778567  1.0000
  C   C6        1.0  0.46930377483011965  0.2398382189165484  0.6596755716804961  1.0000
  C   C7        1.0  0.41482396983915376  0.359062867854753  0.6283564809021775  1.0000
  C   C8        1.0  0.326715749113012  0.34311882844338326  0.6326051479038926  1.0000
  C   C9        1.0  0.2715180684881368  0.4658123788171957  0.6003665666413658  1.0000
  N   N2        1.0  0.22715212531744103  0.5644421634514842  0.574449619285267  1.0000
  C   C10       1.0  0.29240714006883745  0.20777269131709367  0.6682215513674916  1.0000
  C   C11       1.0  0.3459544944905787  0.08879453682032647  0.6994802473004864  1.0000
  C   C12       1.0  0.4338797522072145  0.1043005676513811  0.6953470262770405  1.0000
  O   O1        1.0  0.5979652734944205  0.38392420417237966  0.6218358821413983  1.0000
  H   H1        1.0  0.7637655308090819  0.17505774588886025  0.6763777061358354  1.0000
  H   H2        1.0  0.6166692809795157  0.04087486818541385  0.7116337207054364  1.0000
  H   H3        1.0  0.44078038779439366  0.46438616047897185  0.600635882758106  1.0000
  H   H4        1.0  0.22437407415831512  0.1942689180860744  0.6718178292421606  1.0000
  H   H5        1.0  0.3192633236745703  0.9841912889655765  0.7270117565863332  1.0000
  H   H6        1.0  0.4735469212692704  0.01006149202296003  0.7201143635602509  1.0000
  C   C13       1.0  0.01016271900942777  0.1433339459808722  0.5729817822658996  1.0000
  C   C14       1.0  0.9993479192448411  0.22676617928666465  0.45433497363626946  1.0000
  C   C15       1.0  0.9810559071386487  0.16184093323732385  0.3399697154627712  1.0000
  C   C16       1.0  0.9729732682187032  0.0115153859412529  0.3410609084029679  1.0000
  C   C17       1.0  0.9851096786297885  0.9268997755741845  0.45880621284202655  1.0000
  C   C18       1.0  0.004996824600056902  0.9904380943695835  0.5746105181804433  1.0000
  N   N3        1.0  0.953361915239991  0.9451863152828325  0.22288422977549183  1.0000
  O   O2        1.0  0.9422201090946081  0.028374896673449612  0.10757243219461787  1.0000
  O   O3        1.0  0.9458999170314878  0.8113363663873517  0.22306913004899442  1.0000
  H   H7        1.0  0.9929701397345245  0.22009974595145043  0.8916219310314074  1.0000
  H   H8        1.0  0.9723795822861301  0.22982871093257717  0.2506998582180817  1.0000
  H   H9        1.0  0.9810169333526869  0.8103435543058  0.459718222934284  1.0000
  H   H10       1.0  0.9963082909279058  0.692513435544255  0.7899693002204955  1.0000
  C   C19       1.0  0.007503223123283878  0.5668133053806477  0.19247925188400594  1.0000
  C   C20       1.0  0.08483014476254919  0.6397380537947086  0.18691820547671645  1.0000
  C   C21       1.0  0.12327586538407574  0.6780003624467783  0.06689551032943553  1.0000
  C   C22       1.0  0.08503136083082369  0.6399274626796225  0.9516203965012636  1.0000
  C   C23       1.0  0.007656334747143667  0.5669587504614388  0.955113100960225  1.0000
  C   C24       1.0  0.9692502668426837  0.5311407749608352  0.07597655409424986  1.0000
  C   C25       1.0  0.20721667968920252  0.7522377619858112  0.06232812182441539  1.0000
  O   O4        1.0  0.2726182009685292  0.6462370085011666  0.06982814194869591  1.0000
  C   C26       1.0  0.35179199032084685  0.7145769674537348  0.06566026122376245  1.0000
  H   H11       1.0  0.9783688494460739  0.5373832790538569  0.5221104347341528  1.0000
  H   H12       1.0  0.11548193908743948  0.6670508314788335  0.27580239439003207  1.0000
  H   H13       1.0  0.11582115509696143  0.6673715853146497  0.8593304278125911  1.0000
  H   H14       1.0  0.9096165314861366  0.474887083233555  0.07950312958471573  1.0000
  H   H15       1.0  0.8621733365380242  0.42786641660509983  0.7545504987127525  1.0000
  H   H16       1.0  0.21127159570837828  0.8225904479571837  0.14515958148126162  1.0000
  H   H17       1.0  0.2114678021607207  0.8226102576810925  0.9700461651774185  1.0000
  H   H18       1.0  0.4025038830069674  0.6300297679995939  0.07162699931883298  1.0000
  H   H19       1.0  0.35995536618005475  0.7814541949496893  0.14995764643905773  1.0000
  H   H20       1.0  0.3601619046379443  0.7815120504201312  0.9724473670866396  1.0000
  Zn  Zn1       1.0  0.914729312920187  0.5679235051646143  0.57351936140556  1.0000
  Zn  Zn2       1.0  0.10042211903304427  0.5658479654123444  0.5740723439541151  1.0000
  C   C27       1.0  0.007660529215148367  0.5611852800401189  0.81094789935047  1.0000
  C   C28       1.0  0.007492919425093217  0.5725879877872639  0.33664394299600975  1.0000
  C   C29       1.0  0.005967886345652478  0.8303164673603366  0.5691281956845744  1.0000
  C   C30       1.0  0.009185509512319669  0.30345506827832036  0.578463712370459  1.0000
  O   O5        1.0  0.0779589519571195  0.5737320749252341  0.3852367721903187  1.0000
  O   O6        1.0  0.07813104644427077  0.5584648180798518  0.7627743952281673  1.0000
  O   O7        1.0  0.07676326622988511  0.775791666344855  0.567503273658071  1.0000
  O   O8        1.0  0.07932666872466254  0.35640523766784904  0.5805077962301683  1.0000
  O   O9        1.0  0.9358246998607164  0.7773662336189577  0.5670839089339736  1.0000
  O   O10       1.0  0.9371924694895196  0.5600411182525289  0.7623549645999839  1.0000
  O   O11       1.0  0.9370203750518407  0.5753083245371222  0.384815780277884  1.0000
  O   O12       1.0  0.9383880918983741  0.3579814769819683  0.5800869016524484  1.0000
