data_image0
_chemical_formula_structural       NC4OC2NH2C12H9C12H8Zn2C4O8
_chemical_formula_sum              "N2 C34 O9 H19 Zn2"
_cell_length_a       11.421685574793525
_cell_length_b       14.994057918209652
_cell_length_c       14.994061290378351
_cell_angle_alpha    85.56107452551403
_cell_angle_beta     90.01191906165975
_cell_angle_gamma    89.99072936274727

_space_group_name_H-M_alt    "P 1"
_space_group_IT_number       1

loop_
  _space_group_symop_operation_xyz
  'x, y, z'

loop_
  _atom_site_type_symbol
  _atom_site_label
  _atom_site_symmetry_multiplicity
  _atom_site_fract_x
  _atom_site_fract_y
  _atom_site_fract_z
  _atom_site_occupancy
  N   N1        1.0  0.10244809869453576  0.9763308794263972  0.016350791572522734  1.0000
  C   C1        1.0  0.04156708030266867  0.9732650596708312  0.0781895219075398  1.0000
  C   C2        1.0  0.9658385804501023  0.9694534508082682  0.15507151041969358  1.0000
  C   C3        1.0  0.0005452310999407576  0.9650801230484687  0.2432720271003351  1.0000
  C   C4        1.0  0.8980808748368045  0.9626378666315759  0.2925103998258254  1.0000
  O   O1        1.0  0.8071417843964603  0.9653175685987443  0.23846316315804414  1.0000
  C   C5        1.0  0.8451290974983311  0.9694246190529625  0.15564384630152728  1.0000
  C   C6        1.0  0.7697910580008827  0.9732471804592991  0.07854218577757402  1.0000
  N   N2        1.0  0.7092076422348953  0.9763225515359921  0.01651514582884006  1.0000
  H   H1        1.0  0.08917781631856593  0.963811496390871  0.26885917389732705  1.0000
  H   H2        1.0  0.8921591081252751  0.9590576758472237  0.3647012217990436  1.0000
  C   C7        1.0  0.40588227557349194  0.7143585209999641  0.016423792652011437  1.0000
  C   C8        1.0  0.47351294776387176  0.6619269629621684  0.07880292991395021  1.0000
  C   C9        1.0  0.47345436492467075  0.5687033162213784  0.07883983323514132  1.0000
  C   C10       1.0  0.40586445062657894  0.5258575878297127  0.016471280311470937  1.0000
  C   C11       1.0  0.3382998608127714  0.5783883567556652  0.9540947045362402  1.0000
  C   C12       1.0  0.3382813848792923  0.6716120338007101  0.9541050117894735  1.0000
  C   C13       1.0  0.40583704354390965  0.426783087402282  0.01647859768639426  1.0000
  C   C14       1.0  0.4076542561344356  0.3853531332524322  0.935532467731715  1.0000
  C   C15       1.0  0.40767737000176596  0.29212874296860786  0.9355317297974192  1.0000
  C   C16       1.0  0.40578474158777444  0.23828802789901937  0.0164498696617772  1.0000
  C   C17       1.0  0.4039178101159362  0.2796160021442073  0.09742943828547827  1.0000
  C   C18       1.0  0.4039935439572033  0.3728367676910879  0.09743040929459146  1.0000
  H   H3        1.0  0.33760269295489964  0.9320463767769783  0.9532782722247796  1.0000
  H   H4        1.0  0.5268083904274261  0.692912542265581  0.12753110111433297  1.0000
  H   H5        1.0  0.5276077483838373  0.5301695027280833  0.12697604769003779  1.0000
  H   H6        1.0  0.2841283114077564  0.5473235096106208  0.9059664670461582  1.0000
  H   H7        1.0  0.28499598634368445  0.7101270140927094  0.9053630575400223  1.0000
  H   H8        1.0  0.41065032752915337  0.4250584097232513  0.8721037869455514  1.0000
  H   H9        1.0  0.4094798829249365  0.262306151320878  0.8720458838252203  1.0000
  H   H10       1.0  0.4020963275572589  0.23993959108560706  0.16090926116142756  1.0000
  H   H11       1.0  0.4010180010522959  0.40272960917748934  0.16085679889043958  1.0000
  C   C19       1.0  0.4058830002971291  0.9763346152628837  0.7544701500560896  1.0000
  C   C20       1.0  0.4697401019951067  0.9116777681429286  0.7118892391343428  1.0000
  C   C21       1.0  0.4696792833524533  0.9116428922948292  0.618671101824397  1.0000
  C   C22       1.0  0.405862406829572  0.9762877935095955  0.565976521894693  1.0000
  C   C23       1.0  0.342071119630573  0.040939841916852515  0.6086573284543144  1.0000
  C   C24       1.0  0.3420520970023446  0.04093009186361773  0.7018824682438707  1.0000
  C   C25       1.0  0.4058345444103631  0.9762813977258663  0.46690314785278875  1.0000
  C   C26       1.0  0.41245726562179513  0.05708062306154438  0.4129559776423455  1.0000
  C   C27       1.0  0.4124804049544455  0.057080568070849234  0.31973153185903835  1.0000
  C   C28       1.0  0.4057839944238879  0.976311922518101  0.2784035466946737  1.0000
  C   C29       1.0  0.3991097361391377  0.8954810661271755  0.3322537143382046  1.0000
  C   C30       1.0  0.3991852703365778  0.8954775017712358  0.4254748423016718  1.0000
  H   H12       1.0  0.5200872032689129  0.8611541853437796  0.7505710175425475  1.0000
  H   H13       1.0  0.5209187700503066  0.8616810237622016  0.5877445519038628  1.0000
  H   H14       1.0  0.29081322722950037  0.0908944064165691  0.5699864256825655  1.0000
  H   H15       1.0  0.29171580902350835  0.09146709076243417  0.7326991600021142  1.0000
  H   H16       1.0  0.4192171509003153  0.12033963564060296  0.44285749579757633  1.0000
  H   H17       1.0  0.41805144373410563  0.12043801544363307  0.28009282897070564  1.0000
  H   H18       1.0  0.3935200883723345  0.8321302250252265  0.30239243268297405  1.0000
  H   H19       1.0  0.39244598060689584  0.8322200218567968  0.46517114158568557  1.0000
  Zn  Zn1       1.0  0.2775458115820025  0.9763260868954304  0.016403374778372726  1.0000
  Zn  Zn2       1.0  0.534109962431015  0.9763200413382194  0.01646987862843508  1.0000
  C   C31       1.0  0.4058007480733515  0.972762348027556  0.17936871370500318  1.0000
  C   C32       1.0  0.405857827386058  0.9798849057293375  0.8535046280422243  1.0000
  C   C33       1.0  0.40579779613245304  0.13925435907389416  0.01289005757922901  1.0000
  C   C34       1.0  0.40586069197014774  0.8133918228871116  0.019983331652760568  1.0000
  O   O2        1.0  0.5032141380037903  0.9810702294996145  0.8867667412162725  1.0000
  O   O3        1.0  0.5031706916335283  0.9715717628438655  0.14615681858172624  1.0000
  O   O4        1.0  0.5031669952051059  0.10601616733342785  0.011724125602002979  1.0000
  O   O5        1.0  0.5032177468956995  0.8466258313966065  0.021199367285843266  1.0000
  O   O6        1.0  0.3084379395645656  0.10602029684007852  0.01167388609357767  1.0000
  O   O7        1.0  0.30844163579704365  0.9715769641494384  0.14610653156115183  1.0000
  O   O8        1.0  0.30848508245365985  0.9810753997645805  0.8867153816501248  1.0000
  O   O9        1.0  0.30848869132932993  0.8466309952780522  0.02114807460246104  1.0000
