data_image0
_chemical_formula_structural       NC9NC3OH6C6OCH7C7H8Zn2C4O8
_chemical_formula_sum              "N2 C30 O10 H21 Zn2"
_cell_length_a       15.78231758774541
_cell_length_b       9.273888216677433
_cell_length_c       9.274345330872308
_cell_angle_alpha    85.31914840457938
_cell_angle_beta     89.64000707228584
_cell_angle_gamma    89.05820199757645

_space_group_name_H-M_alt    "P 1"
_space_group_IT_number       1

loop_
  _space_group_symop_operation_xyz
  'x, y, z'

loop_
  _atom_site_type_symbol
  _atom_site_label
  _atom_site_symmetry_multiplicity
  _atom_site_fract_x
  _atom_site_fract_y
  _atom_site_fract_z
  _atom_site_occupancy
  N   N1        1.0  0.7957302256692836  0.5813997006453526  0.4163210078263897  1.0000
  C   C1        1.0  0.7476161270944125  0.49007156825032744  0.4427619036875002  1.0000
  C   C2        1.0  0.6878805616691479  0.37671115367982355  0.4755818718229319  1.0000
  C   C3        1.0  0.7081951940217917  0.2343128759382267  0.5167207991436977  1.0000
  C   C4        1.0  0.6317802497801155  0.16530046657313457  0.5367411763292873  1.0000
  C   C5        1.0  0.5695168037668973  0.27069114078631507  0.5063395331759921  1.0000
  C   C6        1.0  0.4765146270594293  0.2512052408161858  0.5120623046608939  1.0000
  C   C7        1.0  0.4222230395121307  0.3706801737281067  0.4774148451507587  1.0000
  C   C8        1.0  0.3340893358824531  0.35470214243648335  0.4821153376677682  1.0000
  C   C9        1.0  0.2790853916774175  0.47765333014823136  0.4464506287666583  1.0000
  N   N2        1.0  0.23487519425851483  0.5764902330826271  0.4177793734438677  1.0000
  C   C10       1.0  0.29956673583665516  0.21907133939474943  0.5215171154522904  1.0000
  C   C11       1.0  0.35292623939218837  0.09984338074829391  0.5560977839984107  1.0000
  C   C12       1.0  0.44087628654076105  0.11538248063313716  0.5515250081978091  1.0000
  O   O1        1.0  0.6054035383241806  0.3955936122756203  0.47020133594154795  1.0000
  H   H1        1.0  0.7708757466296634  0.18629149769312783  0.53053781617458  1.0000
  H   H2        1.0  0.623567626019511  0.05182686952749548  0.5695406260472247  1.0000
  H   H3        1.0  0.4483460048541874  0.4762250276890778  0.4467480288037389  1.0000
  H   H4        1.0  0.23151209821975752  0.2055387951397445  0.5254958296959091  1.0000
  H   H5        1.0  0.32606965760076706  0.9950200826065961  0.586555416780582  1.0000
  H   H6        1.0  0.4803946217777109  0.020945471273967613  0.578924500413543  1.0000
  C   C13       1.0  0.017801364279388162  0.15546620754690377  0.4155840520445204  1.0000
  C   C14       1.0  0.9985914030165994  0.23992991274200426  0.2866199721744036  1.0000
  C   C15       1.0  0.972147359025975  0.17644375512072719  0.16329363719130163  1.0000
  C   C16       1.0  0.9647586433582797  0.025505702906639893  0.1684674235655168  1.0000
  C   C17       1.0  0.9848677448119957  0.9398580795056147  0.29465852482295274  1.0000
  C   C18       1.0  0.0128121312350784  0.002412463447603703  0.4185287827325861  1.0000
  O   O2        1.0  0.9534319639955854  0.2670365729639014  0.03857395499121009  1.0000
  C   C19       1.0  0.9257458559418489  0.21743753351946915  0.9056749211210016  1.0000
  H   H7        1.0  0.023112329675840638  0.22937440699003298  0.7707380170367872  1.0000
  H   H8        1.0  0.9442616355218176  0.973011962701251  0.0750649602673985  1.0000
  H   H9        1.0  0.9804667229968854  0.8234425389227638  0.29416337014468397  1.0000
  H   H10       1.0  0.019944270415937364  0.7015797211968945  0.6567505449708348  1.0000
  H   H11       1.0  0.8648652693363854  0.1598668897750377  0.9221047278886724  1.0000
  H   H12       1.0  0.974587674152952  0.1446142619597477  0.8625643639908173  1.0000
  H   H13       1.0  0.9157976342897897  0.3118445756937147  0.8258555143591519  1.0000
  C   C20       1.0  0.017204571089173726  0.5821603895640884  0.9932715985837705  1.0000
  C   C21       1.0  0.9661522085857132  0.6843018576632791  0.05871679435112886  1.0000
  C   C22       1.0  0.910102174651901  0.7749027612406079  0.9768116494309433  1.0000
  C   C23       1.0  0.9031379008251295  0.7643727332843835  0.8278072215005814  1.0000
  C   C24       1.0  0.9554802775082417  0.6662712081229216  0.7603762004759971  1.0000
  C   C25       1.0  0.013408917343649558  0.5757182962514779  0.8408411963138165  1.0000
  C   C26       1.0  0.8441530268904232  0.8640911392837872  0.7394289125733247  1.0000
  H   H14       1.0  0.11633398811518808  0.2669686049460743  0.12083899467287228  1.0000
  H   H15       1.0  0.9682642128495715  0.6920162108803032  0.17456785781351636  1.0000
  H   H16       1.0  0.871399401142016  0.8523635585723758  0.03011467518083788  1.0000
  H   H17       1.0  0.9522916947671605  0.6630191646849426  0.6439620575193068  1.0000
  H   H18       1.0  0.08321636504592278  0.3664665326428631  0.5764486462339038  1.0000
  H   H19       1.0  0.8781680037970546  0.9638296475693996  0.7007679444200261  1.0000
  H   H20       1.0  0.7883726689623246  0.8940877909496882  0.8049213065803893  1.0000
  H   H21       1.0  0.8206612464937535  0.811064851990643  0.6445629558848363  1.0000
  Zn  Zn1       1.0  0.9224579593072489  0.5799790190549137  0.41675017413906645  1.0000
  Zn  Zn2       1.0  0.10814744863178194  0.5778990551711356  0.4173619632764982  1.0000
  C   C27       1.0  0.01415834892623824  0.5711910571218153  0.6806124413284242  1.0000
  C   C28       1.0  0.016449075383263772  0.5866888128661709  0.15349985073749914  1.0000
  C   C29       1.0  0.013776609384521517  0.8423653518721513  0.4122213928071532  1.0000
  C   C30       1.0  0.016830761423954673  0.31551278565368857  0.4218909699653801  1.0000
  O   O3        1.0  0.08666375465376096  0.5874129663021996  0.20750606477854472  1.0000
  O   O4        1.0  0.08487770375976428  0.5688871744817092  0.627070141879116  1.0000
  O   O5        1.0  0.08456848758719077  0.7878638461948941  0.41034247337060403  1.0000
  O   O6        1.0  0.0869729078868877  0.36843630643721825  0.4242336249094705  1.0000
  O   O7        1.0  0.9436324366854587  0.7894417685002482  0.40987851228973504  1.0000
  O   O8        1.0  0.9439416429923733  0.5704668299606268  0.6266061098752775  1.0000
  O   O9        1.0  0.9457277020087891  0.5889925847151134  0.20704029754028963  1.0000
  O   O10       1.0  0.9460368548146784  0.3700159137133454  0.42376796583244314  1.0000
