data_image0
_chemical_formula_structural       NC5NC3BrH3C7NH5C6NH7Zn2C4O8
_chemical_formula_sum              "N4 C25 Br1 H15 Zn2 O8"
_cell_length_a       13.839083392302014
_cell_length_b       9.275154477615127
_cell_length_c       9.274774538082513
_cell_angle_alpha    85.29330631285735
_cell_angle_beta     90.35089926540529
_cell_angle_gamma    89.45968127068964

_space_group_name_H-M_alt    "P 1"
_space_group_IT_number       1

loop_
  _space_group_symop_operation_xyz
  'x, y, z'

loop_
  _atom_site_type_symbol
  _atom_site_label
  _atom_site_symmetry_multiplicity
  _atom_site_fract_x
  _atom_site_fract_y
  _atom_site_fract_z
  _atom_site_occupancy
  N   N1        1.0  0.8928661999863043  0.5922898459622912  0.4143465017543664  1.0000
  C   C1        1.0  0.8212942179304004  0.528637689646841  0.41656120839648325  1.0000
  C   C2        1.0  0.7321206884377323  0.44943240088152697  0.4193169112946974  1.0000
  C   C3        1.0  0.6440486141267168  0.5256450842537503  0.41666552121746947  1.0000
  C   C4        1.0  0.5565075539645676  0.4509053693501674  0.419265607632368  1.0000
  C   C5        1.0  0.4662171476637222  0.5294698415519037  0.41653223934391875  1.0000
  N   N2        1.0  0.393635349350501  0.5926295197480427  0.4143346282367444  1.0000
  C   C6        1.0  0.5569748430483324  0.2996414159365526  0.4245279709646306  1.0000
  C   C7        1.0  0.6446026916347055  0.22330744548952827  0.42718348912810616  1.0000
  C   C8        1.0  0.7323446115955881  0.2973329169101431  0.42460827091881925  1.0000
  Br  Br1       1.0  0.8504923852020814  0.1872242139085392  0.42843896175739404  1.0000
  H   H1        1.0  0.6436314133441502  0.6428618478685932  0.4125874353493831  1.0000
  H   H2        1.0  0.48967854777380204  0.24077901065047588  0.4265754834663106  1.0000
  H   H3        1.0  0.64425500768755  0.10633993309277633  0.4312525260263089  1.0000
  C   C9        1.0  0.1460446378211222  0.1690867991137619  0.4126704919551427  1.0000
  C   C10       1.0  0.11899365723859656  0.25335467502183895  0.28542646331164395  1.0000
  C   C11       1.0  0.08411105126793128  0.1883410825975702  0.1649229596906574  1.0000
  C   C12       1.0  0.07570741203260956  0.038168559448950264  0.17024429847649447  1.0000
  C   C13       1.0  0.10364192853569555  0.9527188441163112  0.2945878653384365  1.0000
  C   C14       1.0  0.14046628606922051  0.015821363809659133  0.4160231449553339  1.0000
  C   C15       1.0  0.055768166751003045  0.27620323848496287  0.036145331534588994  1.0000
  N   N3        1.0  0.03298833807679413  0.3468282240937808  0.9326411045759571  1.0000
  H   H4        1.0  0.1662501723523604  0.24268930436185007  0.7669172176619843  1.0000
  H   H5        1.0  0.12292207944789602  0.37035399763184484  0.28114428817453296  1.0000
  H   H6        1.0  0.04838306797449876  0.9868292826724466  0.07762979989992602  1.0000
  H   H7        1.0  0.09856741696046224  0.836248911316341  0.2944609780370395  1.0000
  H   H8        1.0  0.1581668251392181  0.7149979241916016  0.6533784291676161  1.0000
  C   C16       1.0  0.14149704203730967  0.5961403272152743  0.9905451232271864  1.0000
  C   C17       1.0  0.20940499048998773  0.6812658692370279  0.057616877536925695  1.0000
  C   C18       1.0  0.28172618589882936  0.7545182409880172  0.9771400799988939  1.0000
  C   C19       1.0  0.2867268887259007  0.7429774726286427  0.8281168398119334  1.0000
  C   C20       1.0  0.21910802698975917  0.6610281231433965  0.7593550907563487  1.0000
  C   C21       1.0  0.1450138680984112  0.5887677739941994  0.8381484668696675  1.0000
  N   N4        1.0  0.35074474738854633  0.8394439595952887  0.04721625901289529  1.0000
  H   H9        1.0  0.9989191535667702  0.3142098617684985  0.11535295545358527  1.0000
  H   H10       1.0  0.2076205991246145  0.6881024116643011  0.1736641217272466  1.0000
  H   H11       1.0  0.3425696579573048  0.7987181919496329  0.7648052895905249  1.0000
  H   H12       1.0  0.22344326030313177  0.6570207096957494  0.6431660604313261  1.0000
  H   H13       1.0  0.04598611760257865  0.40326471614560777  0.5713348381410426  1.0000
  H   H14       1.0  0.3478792233464101  0.8484830816878388  0.158622045874393  1.0000
  H   H15       1.0  0.4052002986704566  0.8940499843701519  0.9881889374418013  1.0000
  Zn  Zn1       1.0  0.03737742230776209  0.5923839304904106  0.4143514005509852  1.0000
  Zn  Zn2       1.0  0.24912424616266926  0.5925235152426418  0.41434152640026894  1.0000
  C   C22       1.0  0.14438480108305662  0.5844178675185632  0.6779105464673976  1.0000
  C   C23       1.0  0.1421191682594698  0.6004913976034987  0.1507825292275875  1.0000
  C   C24       1.0  0.14149187360369586  0.8558205073117622  0.40963840293389914  1.0000
  C   C25       1.0  0.14501203521525907  0.32908702493942044  0.4190547428484861  1.0000
  O   O1        1.0  0.22268481706540166  0.6019983384942658  0.2045558943753108  1.0000
  O   O2        1.0  0.22453009753666708  0.5830157842095653  0.6241292673195677  1.0000
  O   O3        1.0  0.22219294498904452  0.8021768344307472  0.40749761933241535  1.0000
  O   O4        1.0  0.22502189684125518  0.3828372994801086  0.42118743419767246  1.0000
  O   O5        1.0  0.061479699370334824  0.8020701462069457  0.40750549274936604  1.0000
  O   O6        1.0  0.0638168401826884  0.5829108288106453  0.624137070644903  1.0000
  O   O7        1.0  0.061971552907365224  0.6018933479472155  0.20456196237282387  1.0000
  O   O8        1.0  0.06430863319614666  0.382732297680036  0.4211936103557615  1.0000
