data_image0
_chemical_formula_structural       NC9NC3SH6C9H10C9H10Zn2C4O8
_chemical_formula_sum              "N2 C34 S1 H26 Zn2 O8"
_cell_length_a       16.77567553997237
_cell_length_b       9.272676604525723
_cell_length_c       9.27267997650553
_cell_angle_alpha    86.26619108519446
_cell_angle_beta     90.7858477527611
_cell_angle_gamma    91.44448428757873

_space_group_name_H-M_alt    "P 1"
_space_group_IT_number       1

loop_
  _space_group_symop_operation_xyz
  'x, y, z'

loop_
  _atom_site_type_symbol
  _atom_site_label
  _atom_site_symmetry_multiplicity
  _atom_site_fract_x
  _atom_site_fract_y
  _atom_site_fract_z
  _atom_site_occupancy
  N   N1        1.0  0.7531465266660119  0.5862503491871327  0.42453438140541666  1.0000
  C   C1        1.0  0.698870831099157  0.6414164208958186  0.470968807372129  1.0000
  C   C2        1.0  0.6315138603890936  0.7098738645861584  0.5285903798765712  1.0000
  C   C3        1.0  0.6345832635576141  0.8085790251594589  0.6345672182193631  1.0000
  C   C4        1.0  0.5593409788728346  0.8571506073896809  0.6697722914555636  1.0000
  C   C5        1.0  0.49671100686786585  0.7964795340906947  0.5911013102163064  1.0000
  C   C6        1.0  0.4104224831385547  0.8255276837523727  0.6032803621673715  1.0000
  C   C7        1.0  0.352880146954796  0.7366001878965597  0.5381663789233111  1.0000
  C   C8        1.0  0.2714247836272716  0.7634057537004543  0.5491621800879498  1.0000
  C   C9        1.0  0.2131930548615678  0.6715016202977497  0.48248556210246757  1.0000
  N   N2        1.0  0.166391876602853  0.5976238696237428  0.42888741087030513  1.0000
  C   C10       1.0  0.24668310545727276  0.8794855813868735  0.6250946733024232  1.0000
  C   C11       1.0  0.3031327495258242  0.9685852415358294  0.6896969821378891  1.0000
  C   C12       1.0  0.3844338926103544  0.9421858127463514  0.6790300858182934  1.0000
  S   S1        1.0  0.536251581708562  0.6821716627661976  0.4783299578794807  1.0000
  H   H1        1.0  0.6893733059567833  0.8443837991409422  0.685541702344957  1.0000
  H   H2        1.0  0.5517972769851728  0.9332361714717478  0.7516991800620529  1.0000
  H   H3        1.0  0.37096669908008045  0.6458264329182306  0.4795251866227513  1.0000
  H   H4        1.0  0.18384980264090936  0.9011717103188132  0.6341726874389895  1.0000
  H   H5        1.0  0.28386053243058545  0.05867689380942797  0.7479826079508083  1.0000
  H   H6        1.0  0.4264524790859256  0.014388542010961722  0.7290497579326747  1.0000
  C   C13       1.0  0.9575065670058316  0.16837140244471646  0.4248453475631456  1.0000
  C   C14       1.0  0.9260447266401863  0.23257948964972575  0.5439150291500063  1.0000
  C   C15       1.0  0.9018920293633226  0.14878150004819357  0.6665852419390389  1.0000
  C   C16       1.0  0.9084224154825968  0.998274495878066  0.6743139079582475  1.0000
  C   C17       1.0  0.9385735400459726  0.932571598424417  0.5541196458152944  1.0000
  C   C18       1.0  0.9620394823917459  0.015492041627680472  0.4285889966570099  1.0000
  C   C19       1.0  0.8814782809524832  0.9150479056037806  0.8125227927751528  1.0000
  C   C20       1.0  0.8411225072717753  0.7677255411359197  0.7977431293270644  1.0000
  C   C21       1.0  0.925555217882402  0.7779910033830016  0.8596348930319521  1.0000
  H   H7        1.0  0.9743094039320392  0.4657299870245242  0.1887730557540901  1.0000
  H   H8        1.0  0.9218367266800647  0.3489850698512871  0.5437321085755071  1.0000
  H   H9        1.0  0.8786164789281906  0.2023273329493953  0.7569259261269967  1.0000
  H   H10       1.0  0.9423827407515104  0.8162870335438188  0.5554985458879638  1.0000
  H   H11       1.0  0.9813788536349434  0.9363251702218807  0.07578146408806696  1.0000
  H   H12       1.0  0.8592532254606728  0.975300646734939  0.9030622669759881  1.0000
  H   H13       1.0  0.8370011501968769  0.7274640478251159  0.6877915665128429  1.0000
  H   H14       1.0  0.7952277753568879  0.7383595663477641  0.8804333209815765  1.0000
  H   H15       1.0  0.9726982571755178  0.7438367873497173  0.7873641454097657  1.0000
  H   H16       1.0  0.9290053646583037  0.7546187427643513  0.9785168676742284  1.0000
  C   C22       1.0  0.9581381246577964  0.5884812603786834  0.0033224103892211  1.0000
  C   C23       1.0  0.011848791437641948  0.5007511213835685  0.0837651453576811  1.0000
  C   C24       1.0  0.06954866741259069  0.4248173887658293  0.01543366517332356  1.0000
  C   C25       1.0  0.07548940674886985  0.43411807804393865  0.8646738636588176  1.0000
  C   C26       1.0  0.02081116235217984  0.5198642956746198  0.7828281189911062  1.0000
  C   C27       1.0  0.9614078862508307  0.5953822188208573  0.8501119682842921  1.0000
  C   C28       1.0  0.14057492800636154  0.3490345310738738  0.7988321383839833  1.0000
  C   C29       1.0  0.12123529554961943  0.28250256637023363  0.6562405560736226  1.0000
  C   C30       1.0  0.17801078304665396  0.4131969757112681  0.659583622352069  1.0000
  H   H17       1.0  0.8386004073000374  0.6826990667472064  0.27543959022769715  1.0000
  H   H18       1.0  0.010547559971543883  0.49344064869900106  0.2007942970293155  1.0000
  H   H19       1.0  0.11047046680229311  0.35929575826364024  0.08120630985866753  1.0000
  H   H20       1.0  0.022628158664921738  0.5261488096865503  0.6660955599119087  1.0000
  H   H21       1.0  0.7811073660515327  0.7260929263052989  0.7341020065142567  1.0000
  H   H22       1.0  0.1819022247242983  0.28529597164600395  0.8711706567646799  1.0000
  H   H23       1.0  0.06213943440480385  0.3054865499125057  0.6060438363657141  1.0000
  H   H24       1.0  0.15165097929048788  0.1795162659053506  0.6418139129738565  1.0000
  H   H25       1.0  0.15344089544184136  0.515505638962125  0.6113010478088798  1.0000
  H   H26       1.0  0.24161851668250933  0.3865866392437575  0.6471070824027192  1.0000
  Zn  Zn1       1.0  0.8724002225185236  0.589528718433558  0.4257988895490563  1.0000
  Zn  Zn2       1.0  0.04713815854325287  0.5943338302962307  0.4276346911093767  1.0000
  C   C31       1.0  0.9607573132093734  0.58833159805606  0.6900251554215933  1.0000
  C   C32       1.0  0.9587829862699744  0.5955328242249955  0.1634085948393469  1.0000
  C   C33       1.0  0.9611563530743289  0.8553212841187378  0.42213584827266276  1.0000
  C   C34       1.0  0.958383877803122  0.3285414042052499  0.43129797057208946  1.0000
  O   O1        1.0  0.02531151011340671  0.5997166157452849  0.21783163006227096  1.0000
  O   O2        1.0  0.026850832222969922  0.5877936837495092  0.636995031253836  1.0000
  O   O3        1.0  0.027172173830090077  0.8033912194263833  0.42067251760594004  1.0000
  O   O4        1.0  0.024990108517842998  0.38411908786589444  0.4341540350242335  1.0000
  O   O5        1.0  0.894548212914431  0.7997434592256542  0.41927954500015396  1.0000
  O   O6        1.0  0.8942268802797053  0.5841476558676072  0.6356019894301923  1.0000
  O   O7        1.0  0.892687551260667  0.5960705234745742  0.21643685455417594  1.0000
  O   O8        1.0  0.8923661500240443  0.3804729861594595  0.43275936756802685  1.0000
