data_image0
_chemical_formula_structural       NC9NC3SH6C7F3H5C6SCNH5Zn2C4O8
_chemical_formula_sum              "N3 C30 S2 H16 F3 Zn2 O8"
_cell_length_a       16.77567553997237
_cell_length_b       9.272718291674593
_cell_length_c       10.302218930750287
_cell_angle_alpha    85.98261342229135
_cell_angle_beta     90.41546648822373
_cell_angle_gamma    90.46558260785916

_space_group_name_H-M_alt    "P 1"
_space_group_IT_number       1

loop_
  _space_group_symop_operation_xyz
  'x, y, z'

loop_
  _atom_site_type_symbol
  _atom_site_label
  _atom_site_symmetry_multiplicity
  _atom_site_fract_x
  _atom_site_fract_y
  _atom_site_fract_z
  _atom_site_occupancy
  N   N1        1.0  0.7438694503474156  0.5985192614878059  0.5856843733588131  1.0000
  C   C1        1.0  0.6889058669793718  0.6532718416573309  0.6276510264199032  1.0000
  C   C2        1.0  0.620695274757799  0.7212161736725173  0.679728435896229  1.0000
  C   C3        1.0  0.6224512727752796  0.8189914733183041  0.7754332931627492  1.0000
  C   C4        1.0  0.5466238198923481  0.8672461252346548  0.8072697047854616  1.0000
  C   C5        1.0  0.4848499795299747  0.8072589107832381  0.7362588919378619  1.0000
  C   C6        1.0  0.3982435217554497  0.8361911860482317  0.7473064350759598  1.0000
  C   C7        1.0  0.3417749198554127  0.7478494100278339  0.6884255151614618  1.0000
  C   C8        1.0  0.26002704454060943  0.7745500641154364  0.6984013417213473  1.0000
  C   C9        1.0  0.20290276480015257  0.6832461358215549  0.6381050407889808  1.0000
  N   N2        1.0  0.1569918157706619  0.6098508615968414  0.5896357208354022  1.0000
  C   C10       1.0  0.233916489051455  0.889940555244589  0.7670993969835793  1.0000
  C   C11       1.0  0.2892926212268776  0.9784586548337258  0.8255200315710789  1.0000
  C   C12       1.0  0.3708812587382675  0.952161201080979  0.8158415062249429  1.0000
  S   S1        1.0  0.5258756442804556  0.6939452381244635  0.6343924400359688  1.0000
  H   H1        1.0  0.6767196652531148  0.8543549294532209  0.821434709377547  1.0000
  H   H2        1.0  0.5380668453262091  0.9426129591416729  0.8812550855965005  1.0000
  H   H3        1.0  0.3609292647259673  0.6576085903188749  0.6353682205533656  1.0000
  H   H4        1.0  0.17084588182183927  0.9115402963617143  0.775334102477771  1.0000
  H   H5        1.0  0.2689603281165525  0.06802067029792003  0.8782552529879086  1.0000
  H   H6        1.0  0.4120383274028488  0.023912008145807285  0.8610837823901261  1.0000
  C   C13       1.0  0.9521698904945396  0.18085046596877996  0.5848086712534477  1.0000
  C   C14       1.0  0.9035612997197793  0.2608412802656366  0.4946183842313916  1.0000
  C   C15       1.0  0.8493143249400178  0.1918318146607496  0.41461842725137465  1.0000
  C   C16       1.0  0.8457880490147207  0.04044544712406184  0.4221752115133325  1.0000
  C   C17       1.0  0.8944556794748543  0.9594975463975268  0.5095566079573899  1.0000
  C   C18       1.0  0.9486990369775544  0.02750879045354626  0.5905227222692568  1.0000
  C   C19       1.0  0.7992541656558431  0.27938119939585526  0.3161544460161736  1.0000
  F   F1        1.0  0.7787802902026651  0.41023281027304215  0.363144121297339  1.0000
  F   F2        1.0  0.729664870309385  0.20607545962426976  0.28836331917862545  1.0000
  F   F3        1.0  0.8422341019514107  0.3053568173366304  0.20283722784487646  1.0000
  H   H7        1.0  0.046874573511406226  0.2621054379486951  0.8659111924874655  1.0000
  H   H8        1.0  0.9067419883614762  0.3778981275768163  0.4886059996928525  1.0000
  H   H9        1.0  0.805931406404669  0.9842675946291104  0.35936009811206737  1.0000
  H   H10       1.0  0.8912025389432934  0.8426390022336634  0.5112723263681267  1.0000
  H   H11       1.0  0.11985557026391747  0.9162697520763061  0.748425288153848  1.0000
  C   C20       1.0  0.9503598696375867  0.6042451150713535  0.20639025320808926  1.0000
  C   C21       1.0  0.025713671086897264  0.539134577263986  0.2104337221069621  1.0000
  C   C22       1.0  0.06317605742387089  0.5062814272728009  0.09546510522297647  1.0000
  C   C23       1.0  0.025908771692338517  0.5389613666521191  0.9752801293780635  1.0000
  C   C24       1.0  0.9505090575344006  0.6041141347508743  0.9689410941964822  1.0000
  C   C25       1.0  0.9131353206457957  0.6363451756964114  0.08506579324292995  1.0000
  S   S2        1.0  0.15950028618109102  0.42373163047726253  0.10207021873777267  1.0000
  C   C26       1.0  0.11852532226453882  0.24742506194718472  0.11275209049710934  1.0000
  N   N3        1.0  0.09163863338651623  0.13184722317014308  0.11975476746112369  1.0000
  H   H12       1.0  0.9216928499733413  0.6290922997863408  0.5321820823936427  1.0000
  H   H13       1.0  0.05557222308507237  0.5134222044147192  0.3026110737846404  1.0000
  H   H14       1.0  0.0559010513081335  0.5131302008041656  0.8871907084021707  1.0000
  H   H15       1.0  0.8550177199289544  0.6865411358850264  0.08110042508402837  1.0000
  H   H16       1.0  0.8084260498575386  0.7270602818742091  0.7497665965126992  1.0000
  Zn  Zn1       1.0  0.8630876611951627  0.6017854663203965  0.5868321266449625  1.0000
  Zn  Zn2       1.0  0.037773650254330216  0.6065728947800251  0.5884985506814848  1.0000
  C   C27       1.0  0.9505026328773247  0.5983958656083201  0.8247638846063727  1.0000
  C   C28       1.0  0.950360578706032  0.6099643666818793  0.35056695062836707  1.0000
  C   C29       1.0  0.9493499979167439  0.8674731267226619  0.584268669011696  1.0000
  C   C30       1.0  0.9515131611722916  0.34088537192393786  0.5910622231869904  1.0000
  O   O1        1.0  0.01665326492245356  0.6136943147199625  0.3995863241450739  1.0000
  O   O2        1.0  0.016792574783322856  0.5982983775306783  0.7770089072809373  1.0000
  O   O3        1.0  0.015860914086184064  0.8155816441036686  0.5828073207357671  1.0000
  O   O4        1.0  0.01758486594977371  0.39641105684258293  0.5937878128404083  1.0000
  O   O5        1.0  0.8832763858879565  0.8119473026256947  0.5815428639105519  1.0000
  O   O6        1.0  0.8842080394676547  0.5946657680641598  0.7757443929162879  1.0000
  O   O7        1.0  0.8840687295603115  0.6100616552870717  0.3983202484239825  1.0000
  O   O8        1.0  0.8850003306456877  0.39277838708193696  0.5925218343936656  1.0000
