data_image0
_chemical_formula_structural       NC5OC5NC4H8C6NCH9C6NCOH5Zn2C4O8
_chemical_formula_sum              "N4 C32 O10 H22 Zn2"
_cell_length_a       19.189071930511275
_cell_length_b       9.273386996610926
_cell_length_c       9.27373355559583
_cell_angle_alpha    86.07967468279998
_cell_angle_beta     89.98918376362916
_cell_angle_gamma    89.38971707573329

_space_group_name_H-M_alt    "P 1"
_space_group_IT_number       1

loop_
  _space_group_symop_operation_xyz
  'x, y, z'

loop_
  _atom_site_type_symbol
  _atom_site_label
  _atom_site_symmetry_multiplicity
  _atom_site_fract_x
  _atom_site_fract_y
  _atom_site_fract_z
  _atom_site_occupancy
  N   N1        1.0  0.6481456791525707  0.5615996935693652  0.4071912063389982  1.0000
  C   C1        1.0  0.5934280770211726  0.6126124188438589  0.3868081782139938  1.0000
  C   C2        1.0  0.5253664457591919  0.676063744806865  0.3614547556438701  1.0000
  C   C3        1.0  0.5151200972161032  0.7825238748659966  0.24873060378791534  1.0000
  C   C4        1.0  0.44900517395535805  0.8442413603065582  0.22424225833307695  1.0000
  C   C5        1.0  0.3924783489544717  0.7993675488351285  0.3109742350510154  1.0000
  O   O1        1.0  0.3271718828800875  0.8650922241033663  0.2839657982873624  1.0000
  C   C6        1.0  0.2625383559353749  0.799150257930374  0.31034845229503993  1.0000
  C   C7        1.0  0.20533992555753144  0.8857014748180408  0.34378752212666486  1.0000
  C   C8        1.0  0.1398541785715632  0.8243112469065217  0.3692193699188564  1.0000
  C   C9        1.0  0.130912042211424  0.6755542601058936  0.359986112501808  1.0000
  C   C10       1.0  0.06349768249883371  0.6123317054163895  0.38599889303477375  1.0000
  N   N2        1.0  0.009300516498324503  0.5615029729937819  0.40691249920951633  1.0000
  C   C11       1.0  0.1876388874903142  0.5886377396391338  0.324419784393398  1.0000
  C   C12       1.0  0.2531155541483923  0.650072300795804  0.2990362890101599  1.0000
  C   C13       1.0  0.4032018476977735  0.6939294077100109  0.4254927380361262  1.0000
  C   C14       1.0  0.4693078836152174  0.6322080942614614  0.45004920524473113  1.0000
  H   H1        1.0  0.5581827212137542  0.8179028602220526  0.17998754379626591  1.0000
  H   H2        1.0  0.4415438879388826  0.926663043431693  0.13702389413046157  1.0000
  H   H3        1.0  0.21179161486243367  0.0008371878535124984  0.35089633266892006  1.0000
  H   H4        1.0  0.09626080621364692  0.8927694670027568  0.3958565757962682  1.0000
  H   H5        1.0  0.1811797476859217  0.4736533919638084  0.3155630020333444  1.0000
  H   H6        1.0  0.2959984971256128  0.5818052358519455  0.2686103196492384  1.0000
  H   H7        1.0  0.3608360147545175  0.6609983876297797  0.49695429618670794  1.0000
  H   H8        1.0  0.4767698603402478  0.5509634215168673  0.5384769282242379  1.0000
  C   C15       1.0  0.8308694417782271  0.1379043955706778  0.40775839541400577  1.0000
  C   C16       1.0  0.843100458020292  0.21997721569558326  0.2774386275422138  1.0000
  C   C17       1.0  0.8487699742797794  0.15407321726986734  0.1471158683148199  1.0000
  C   C18       1.0  0.8422941841379856  0.0037384154948110144  0.14378087247383142  1.0000
  C   C19       1.0  0.8312912334480058  0.9206974906610058  0.2736470236953841  1.0000
  C   C20       1.0  0.8265834857619235  0.9851873217877641  0.4063577981109736  1.0000
  N   N3        1.0  0.8473744823635282  0.9327692542009745  0.010768016042538518  1.0000
  C   C21       1.0  0.8589780174178114  0.009152204285602929  0.8701193232396353  1.0000
  H   H9        1.0  0.8451162610292132  0.4025864673932193  0.6443597690155716  1.0000
  H   H10       1.0  0.8466548077817998  0.3366031679431549  0.27566773142684076  1.0000
  H   H11       1.0  0.8575543774675807  0.22162160662865624  0.049213509311504915  1.0000
  H   H12       1.0  0.8280018367121874  0.8042728840283027  0.2713759925192516  1.0000
  H   H13       1.0  0.8522560690017467  0.8575884154282972  0.7573615046331503  1.0000
  H   H14       1.0  0.8424477737788056  0.8204355470589461  0.013760382551295745  1.0000
  H   H15       1.0  0.81577562713481  0.08746840134744382  0.8451121123291383  1.0000
  H   H16       1.0  0.909418122228393  0.06669294720670059  0.8703129578665236  1.0000
  H   H17       1.0  0.8607313714155884  0.9307988146137088  0.7847972421135521  1.0000
  C   C22       1.0  0.8287095869945837  0.5570005695646618  0.9838386220820525  1.0000
  C   C23       1.0  0.76470130429538  0.5487373919983667  0.057853208253498815  1.0000
  C   C24       1.0  0.7012676390431164  0.5521653284227228  0.9829470311857853  1.0000
  C   C25       1.0  0.7017999598152498  0.568545871884099  0.8315717428125611  1.0000
  C   C26       1.0  0.7647712718624694  0.5746565898973697  0.7563575315313835  1.0000
  C   C27       1.0  0.8287433524496285  0.5660911456013795  0.8302775655119248  1.0000
  N   N4        1.0  0.6370365250668779  0.5471226342199749  0.06301947645690897  1.0000
  C   C28       1.0  0.5745881161205084  0.48070627531252064  0.016395332344006253  1.0000
  O   O2        1.0  0.5746078626082376  0.40435972239898965  0.9091709911927687  1.0000
  H   H18       1.0  0.99242083063517  0.6571307368399562  0.07985972482854264  1.0000
  H   H19       1.0  0.6536230182410104  0.5781640688802413  0.7709783984044773  1.0000
  H   H20       1.0  0.9395859951825519  0.6274327649886258  0.5449840836161308  1.0000
  H   H21       1.0  0.6365929139649382  0.5854817007212256  0.16637525658737462  1.0000
  H   H22       1.0  0.5268958674197692  0.49281794278385593  0.07683293530599311  1.0000
  Zn  Zn1       1.0  0.7523671924162186  0.5615680228023864  0.40711910026588893  1.0000
  Zn  Zn2       1.0  0.9050790805590024  0.5615230127042642  0.40699640832851514  1.0000
  C   C29       1.0  0.8287644884722281  0.5586256218372542  0.6702919638701206  1.0000
  C   C30       1.0  0.8286834429099295  0.5644672349720712  0.14382368182975735  1.0000
  C   C31       1.0  0.8273898182579386  0.8249711484530553  0.40087943725269337  1.0000
  C   C32       1.0  0.8300580697850862  0.2981199759209838  0.4132362881910112  1.0000
  O   O3        1.0  0.8866280662388751  0.56694974115523  0.19746957881605187  1.0000
  O   O4        1.0  0.8867246602198261  0.5561078612420789  0.6165525334703215  1.0000
  O   O5        1.0  0.8856138154574044  0.7711852587078627  0.39900001023638976  1.0000
  O   O6        1.0  0.8877388588345594  0.3518723528643823  0.4150219940144515  1.0000
  O   O7        1.0  0.7697073620275809  0.7712186826591176  0.39909351461423825  1.0000
  O   O8        1.0  0.7708181980160543  0.5561430176454689  0.6166459581386291  1.0000
  O   O9        1.0  0.7707216042666288  0.5669848286762598  0.1975612708222294  1.0000
  O   O10       1.0  0.77183239691597  0.35190743122732404  0.41511379409044746  1.0000
