data_image0
_chemical_formula_structural       NC5NC3F3CH3C6NH7C6NCOH5Zn2C4O8
_chemical_formula_sum              "N4 C26 F3 H15 O9 Zn2"
_cell_length_a       13.85151926108384
_cell_length_b       9.274771166103582
_cell_length_c       9.27373355559583
_cell_angle_alpha    86.06900368676713
_cell_angle_beta     90.01106478647557
_cell_angle_gamma    90.59705350001695

_space_group_name_H-M_alt    "P 1"
_space_group_IT_number       1

loop_
  _space_group_symop_operation_xyz
  'x, y, z'

loop_
  _atom_site_type_symbol
  _atom_site_label
  _atom_site_symmetry_multiplicity
  _atom_site_fract_x
  _atom_site_fract_y
  _atom_site_fract_z
  _atom_site_occupancy
  N   N1        1.0  0.9197716083380653  0.5615583879754713  0.407406395593068  1.0000
  C   C1        1.0  0.8473914827809503  0.5531471159095007  0.46987364770117773  1.0000
  C   C2        1.0  0.7573449107684941  0.5426823439482938  0.5475918456120272  1.0000
  C   C3        1.0  0.6698677842513227  0.5510949612118838  0.4720695892471032  1.0000
  C   C4        1.0  0.5822929211687868  0.5426823305844763  0.5475918255827048  1.0000
  C   C5        1.0  0.492372230793578  0.5531471330725437  0.4698737417150414  1.0000
  N   N2        1.0  0.4200934224819234  0.561558351210583  0.4074065010882837  1.0000
  C   C6        1.0  0.582178993492033  0.5248607852299747  0.6988141443865024  1.0000
  C   C7        1.0  0.6696431916627398  0.5132712225804272  0.775604020282048  1.0000
  C   C8        1.0  0.6695678064480141  0.4994408252972171  0.9386118960768671  1.0000
  F   F1        1.0  0.7499906503550576  0.4251639068266697  0.9903373351810548  1.0000
  F   F2        1.0  0.5881218355010731  0.4251638772865791  0.9903374345083664  1.0000
  F   F3        1.0  0.670526144140405  0.6358396207249408  0.9900697763046383  1.0000
  C   C9        1.0  0.7572493196722271  0.5248606901665646  0.6988141641725758  1.0000
  H   H1        1.0  0.6699500247353094  0.5650532686181955  0.35498761358714703  1.0000
  H   H2        1.0  0.5140313830782715  0.5203005780526266  0.756460961224855  1.0000
  H   H3        1.0  0.8253481360245486  0.5203004966955227  0.7564609203423305  1.0000
  C   C10       1.0  0.16697336950409536  0.137970268462015  0.4081919736694022  1.0000
  C   C11       1.0  0.14473155920023806  0.2198950479300765  0.27931108544676  1.0000
  C   C12       1.0  0.13150327328360836  0.15345290946386303  0.14961250485917343  1.0000
  C   C13       1.0  0.14056721678716033  0.0036984306865883673  0.14785539357409294  1.0000
  C   C14       1.0  0.1610234512152387  0.9204352114161546  0.27496583504656846  1.0000
  C   C15       1.0  0.1729008270991606  0.9851355704755281  0.40663338741043775  1.0000
  N   N3        1.0  0.10985431558315195  0.23846197624843588  0.019315141087405948  1.0000
  H   H4        1.0  0.2756872291986839  0.22101758874210084  0.7236031635071358  1.0000
  H   H5        1.0  0.1398637151801747  0.3364818112211565  0.2787574784641631  1.0000
  H   H6        1.0  0.1308463109075768  0.951139625257273  0.048065421184824826  1.0000
  H   H7        1.0  0.16527718086807516  0.804226873004529  0.2708383009590365  1.0000
  H   H8        1.0  0.24221152460046505  0.6903736204827756  0.6212246728872404  1.0000
  H   H9        1.0  0.10320273143997016  0.3505353748774467  0.01926833038750297  1.0000
  H   H10       1.0  0.10022478228972644  0.18994582991572195  0.9218952992591167  1.0000
  C   C16       1.0  0.16985005078961302  0.5570082232368097  0.9841940216578573  1.0000
  C   C17       1.0  0.08106094611986948  0.5487290507745827  0.058160710724611375  1.0000
  C   C18       1.0  0.9932316000884231  0.5521395381370484  0.9832049457104838  1.0000
  C   C19       1.0  0.9941984318462954  0.5685179711429001  0.8318270777307144  1.0000
  C   C20       1.0  0.08152083505221919  0.5746447025562802  0.7566603561144745  1.0000
  C   C21       1.0  0.17002412753096377  0.5660975580218449  0.8306313315447968  1.0000
  N   N4        1.0  0.9041788958805116  0.5470803464640832  0.0632287339396227  1.0000
  C   C22       1.0  0.8167364015553166  0.4806564083531666  0.01656851336639287  1.0000
  O   O1        1.0  0.8156946370598422  0.40432036118557546  0.9093581255328362  1.0000
  H   H11       1.0  0.39804836040013436  0.6571684351436944  0.08032320704812079  1.0000
  H   H12       1.0  0.9275915581745577  0.5781219510481181  0.7711947913702253  1.0000
  H   H13       1.0  0.3244381440310809  0.627460406967657  0.5454122063132232  1.0000
  H   H14       1.0  0.9041015043753448  0.585434018452371  0.1665771687063875  1.0000
  H   H15       1.0  0.7508359108487871  0.4927536455144086  0.07696709327659912  1.0000
  Zn  Zn1       1.0  0.06415365129684569  0.5615546157524363  0.4074147400843149  1.0000
  Zn  Zn2       1.0  0.2757112821636301  0.5615504841560701  0.4074099290972413  1.0000
  C   C23       1.0  0.16994886458194294  0.5586330666989162  0.670647109147521  1.0000
  C   C24       1.0  0.16991839184470006  0.5644738547056296  0.14417769808707037  1.0000
  C   C25       1.0  0.17177424931165963  0.8249415930808346  0.4011848965629634  1.0000
  C   C26       1.0  0.16809292281525878  0.29816359611509874  0.41363999069828217  1.0000
  O   O2        1.0  0.25022630206858243  0.5669715279420842  0.197867867198938  1.0000
  O   O3        1.0  0.25020829337647377  0.556131165039182  0.6169528757395879  1.0000
  O   O4        1.0  0.25168123265861025  0.7711786841368513  0.3993602298528893  1.0000
  O   O5        1.0  0.24875329064613128  0.3519240180041274  0.4154604050081627  1.0000
  O   O6        1.0  0.09111157062011734  0.771181081907278  0.39936426416745174  1.0000
  O   O7        1.0  0.0896386434434782  0.5561352950211199  0.6169568300215553  1.0000
  O   O8        1.0  0.08965665149173363  0.5669755890511973  0.197870088831529  1.0000
  O   O9        1.0  0.08818364001537038  0.3519280699564271  0.41546273471228634  1.0000
