data_image0
_chemical_formula_structural       NC9NC3OCH8C13OH12C11NCOCH11Zn2C4O8
_chemical_formula_sum              "N3 C43 O11 H31 Zn2"
_cell_length_a       17.728193572023454
_cell_length_b       10.299150109392551
_cell_length_c       10.299158637457992
_cell_angle_alpha    85.56061603079257
_cell_angle_beta     90.68674526026633
_cell_angle_gamma    88.43520969070386

_space_group_name_H-M_alt    "P 1"
_space_group_IT_number       1

loop_
  _space_group_symop_operation_xyz
  'x, y, z'

loop_
  _atom_site_type_symbol
  _atom_site_label
  _atom_site_symmetry_multiplicity
  _atom_site_fract_x
  _atom_site_fract_y
  _atom_site_fract_z
  _atom_site_occupancy
  N   N1        1.0  0.7106048435125782  0.38653773418280934  0.584686482076149  1.0000
  C   C1        1.0  0.6499942048660208  0.34911112490479934  0.5977048569688581  1.0000
  C   C2        1.0  0.5745422888314812  0.30258486166866483  0.6139073732375415  1.0000
  C   C3        1.0  0.5626562532486811  0.17453914095380638  0.6233722109859059  1.0000
  C   C4        1.0  0.48594843749890343  0.1250886945555325  0.6383402159407532  1.0000
  C   C5        1.0  0.4277879451793944  0.2077718138293303  0.6557816864445809  1.0000
  C   C6        1.0  0.34974010941150263  0.16272768198316115  0.6775318168066895  1.0000
  C   C7        1.0  0.2883959434861054  0.24819117646194955  0.6420401011049255  1.0000
  C   C8        1.0  0.21412170981136455  0.20889218689149525  0.6622020197193883  1.0000
  C   C9        1.0  0.1517988946470175  0.2968919770491696  0.6246350490543902  1.0000
  N   N2        1.0  0.1017047609996614  0.36763528206189383  0.5944347558427174  1.0000
  C   C10       1.0  0.20055999767375607  0.08401021156985158  0.7189097953417376  1.0000
  C   C11       1.0  0.26100520132836436  0.9988647915833183  0.7558099815119619  1.0000
  C   C12       1.0  0.3351758309773421  0.037674158045984965  0.735777818098736  1.0000
  O   O1        1.0  0.4411299337873977  0.34156855224586335  0.654439987160812  1.0000
  C   C13       1.0  0.5088570494072915  0.39893676796694066  0.60581006419241  1.0000
  H   H1        1.0  0.6095913432519834  0.10507166902035926  0.6212950010531264  1.0000
  H   H2        1.0  0.478307737804071  0.021429811498702163  0.63639342413784  1.0000
  H   H3        1.0  0.2982845114236756  0.3450093350898735  0.5975795547636098  1.0000
  H   H4        1.0  0.1433458967595748  0.0527248836901757  0.7350609402951667  1.0000
  H   H5        1.0  0.25037977743257567  0.9027057181165432  0.8007314420321116  1.0000
  H   H6        1.0  0.3807082794738095  0.9704491862625457  0.7682216048718269  1.0000
  H   H7        1.0  0.49940265090313807  0.4348330580731661  0.5022702113433608  1.0000
  H   H8        1.0  0.5217194176081699  0.4833498284609612  0.6623639116661038  1.0000
  C   C14       1.0  0.9062295281400002  0.9956833091295976  0.589706610726842  1.0000
  C   C15       1.0  0.9048140609838298  0.9839954119312684  0.7264830298230258  1.0000
  C   C16       1.0  0.9040307749231545  0.8609378789449259  0.7955662457682757  1.0000
  C   C17       1.0  0.9046686298951947  0.7487469689225829  0.726116007346788  1.0000
  C   C18       1.0  0.9060873281629305  0.7584793340015391  0.5894260683712764  1.0000
  C   C19       1.0  0.9068615620752809  0.882408499160789  0.5220202272133827  1.0000
  C   C20       1.0  0.9025268080798066  0.8495554450002998  0.9401699022555958  1.0000
  C   C21       1.0  0.8561103762118816  0.7589423804294966  0.007034853219534233  1.0000
  C   C22       1.0  0.8546701429899712  0.7483141391449321  0.1431061262761273  1.0000
  C   C23       1.0  0.9001152752641225  0.8271185210468314  0.21478465190572635  1.0000
  C   C24       1.0  0.9458095949764102  0.9187203457993834  0.1485442782555596  1.0000
  C   C25       1.0  0.9472673458144909  0.9295235373621583  0.012473153115124421  1.0000
  C   C26       1.0  0.8969809089403034  0.8181286728198311  0.3607938347491446  1.0000
  O   O2        1.0  0.8405694487726538  0.9040446118629549  0.399628705559114  1.0000
  H   H9        1.0  0.9084110065369141  0.225061294826584  0.3315224897530211  1.0000
  H   H10       1.0  0.9032713382564024  0.07086057146639592  0.7794535306717981  1.0000
  H   H11       1.0  0.9050893870443925  0.6536211948212673  0.7789603845829616  1.0000
  H   H12       1.0  0.9079537111002207  0.8906316753365587  0.41658713396910896  1.0000
  H   H13       1.0  0.9065822158547368  0.434749729866864  0.5368490578206015  1.0000
  H   H14       1.0  0.8200299807863327  0.6976608048752017  0.9540264757306719  1.0000
  H   H15       1.0  0.8179506796047201  0.6787754220008088  0.19256680247511315  1.0000
  H   H16       1.0  0.980499788790012  0.981622321986542  0.20226421562813057  1.0000
  H   H17       1.0  0.9840119442737827  0.9995067320841737  0.9638197524028645  1.0000
  H   H18       1.0  0.9524834394530937  0.8432882524411922  0.40234754189800215  1.0000
  H   H19       1.0  0.8847100049554054  0.7167126036474478  0.39830082936846767  1.0000
  H   H20       1.0  0.8408310200656743  0.8943857920546466  0.4962625918444347  1.0000
  C   C27       1.0  0.9062292052393416  0.3769399455254381  0.20819505026046614  1.0000
  C   C28       1.0  0.9079571135604425  0.5135706881986  0.19687492444384455  1.0000
  C   C29       1.0  0.9087739315398029  0.5829870975601075  0.07397630397307142  1.0000
  C   C30       1.0  0.9078125820342123  0.5139375723206778  0.9615597126665173  1.0000
  C   C31       1.0  0.906087651753504  0.37722277007699034  0.9709376370355325  1.0000
  C   C32       1.0  0.9053098840460351  0.3095644238101288  0.09464323764520066  1.0000
  C   C33       1.0  0.9106027508811239  0.7275256137214923  0.06297456103738708  1.0000
  C   C34       1.0  0.9569086763527879  0.793126938237219  0.14667149457655837  1.0000
  C   C35       1.0  0.9145699019667833  0.002265857303533461  0.04091387632604526  1.0000
  C   C36       1.0  0.8673652034876469  0.9370683888374329  0.9589774890980141  1.0000
  C   C37       1.0  0.8656690151190591  0.8010767339218754  0.9692011885245959  1.0000
  N   N3        1.0  0.9142556011613799  0.14233828556093409  0.029619799466434227  1.0000
  C   C38       1.0  0.9788972290446976  0.21820830183789353  0.05443388811834903  1.0000
  O   O3        1.0  0.043971659064889326  0.16564651561870836  0.0645899668163541  1.0000
  C   C39       1.0  0.9700182346162283  0.3624641531433217  0.05876290287354191  1.0000
  H   H21       1.0  0.9055882210910632  0.32438291290627297  0.5400256182001602  1.0000
  H   H22       1.0  0.9076173759916875  0.5664086035115203  0.28379812820545847  1.0000
  H   H23       1.0  0.9094387605665384  0.5668768429804236  0.8666093826432596  1.0000
  H   H24       1.0  0.9039796913428879  0.20417781496722376  0.10265988241548651  1.0000
  H   H25       1.0  0.9922384322339881  0.7391881553375327  0.21976360763302896  1.0000
  H   H26       1.0  0.8320567716711684  0.9918812188108808  0.8864548803189397  1.0000
  H   H27       1.0  0.8283826992354414  0.7534885057836168  0.9049424789111841  1.0000
  H   H28       1.0  0.8653278720388901  0.19216184985268203  0.9934362927117193  1.0000
  H   H29       1.0  0.9169501537577408  0.3867454397705341  0.10885008125335505  1.0000
  H   H30       1.0  0.9679805777241635  0.40923373062163965  0.9579763688579708  1.0000
  H   H31       1.0  0.01815603473299099  0.40090850103104764  0.11260270507084401  1.0000
  Zn  Zn1       1.0  0.8234678421943216  0.38107942693213165  0.5875071243489725  1.0000
  Zn  Zn2       1.0  0.9888417879163142  0.3730829885879848  0.591624755204428  1.0000
  C   C40       1.0  0.9061136871333607  0.3719952303506746  0.8267647917185522  1.0000
  C   C41       1.0  0.9061977485264644  0.3821687366620019  0.3523672596637335  1.0000
  C   C42       1.0  0.906111282444611  0.6142929559775767  0.584303777937657  1.0000
  C   C43       1.0  0.9062000970626936  0.13986945334724843  0.5948283418525766  1.0000
  O   O4        1.0  0.9689457429705007  0.3808832938069963  0.402315391703409  1.0000
  O   O5        1.0  0.9688806912517239  0.3672105815787122  0.7799414727347089  1.0000
  O   O6        1.0  0.9688779031692528  0.5628691007040321  0.5841524670928542  1.0000
  O   O7        1.0  0.9689484746383861  0.18522478666526854  0.5981042985615068  1.0000
  O   O8        1.0  0.8433610990382392  0.5689376315850512  0.5810275795799169  1.0000
  O   O9        1.0  0.8433638868392206  0.373280672877786  0.7768165154018474  1.0000
  O   O10       1.0  0.843428938906403  0.3869533392647093  0.39918887297808303  1.0000
  O   O11       1.0  0.8434316705548638  0.19129482286959282  0.594977877207961  1.0000
