data_image0
_chemical_formula_structural       NC9NC3OCH8C12ClH9C12BrH9Zn2C4O8
_chemical_formula_sum              "N2 C41 O9 H26 Cl1 Br1 Zn2"
_cell_length_a       17.728193572023454
_cell_length_b       10.299768534541528
_cell_length_c       10.299148005577397
_cell_angle_alpha    85.55407396339785
_cell_angle_beta     90.6776520193625
_cell_angle_gamma    88.4716702258364

_space_group_name_H-M_alt    "P 1"
_space_group_IT_number       1

loop_
  _space_group_symop_operation_xyz
  'x, y, z'

loop_
  _atom_site_type_symbol
  _atom_site_label
  _atom_site_symmetry_multiplicity
  _atom_site_fract_x
  _atom_site_fract_y
  _atom_site_fract_z
  _atom_site_occupancy
  N   N1        1.0  0.7112413069291676  0.38708750933952224  0.5851779975550748  1.0000
  C   C1        1.0  0.6506156110720531  0.34965850504188367  0.5981821608601974  1.0000
  C   C2        1.0  0.5751449753215976  0.30312925511745203  0.6143670109416186  1.0000
  C   C3        1.0  0.5632103815693096  0.17509267214502477  0.6237819123904016  1.0000
  C   C4        1.0  0.4864828594505767  0.12564016457087446  0.6387310563764106  1.0000
  C   C5        1.0  0.4283517374396939  0.2083057446631758  0.6562056553156626  1.0000
  C   C6        1.0  0.35028526719459174  0.16325572490805418  0.6779389095908219  1.0000
  C   C7        1.0  0.28897597019581694  0.24872753679964021  0.6424794298819263  1.0000
  C   C8        1.0  0.2146853788178991  0.20942282428631342  0.662626669325036  1.0000
  C   C9        1.0  0.15239855352167986  0.29743168369117384  0.6250928530052544  1.0000
  N   N2        1.0  0.10233335224872281  0.36818227954372507  0.5949192126714979  1.0000
  C   C10       1.0  0.2010723066309848  0.08452630060419251  0.7192875223715316  1.0000
  C   C11       1.0  0.2614826412841417  0.9993718329022224  0.756155650279007  1.0000
  C   C12       1.0  0.3356694350727237  0.038186911015083196  0.7361379785976625  1.0000
  O   O1        1.0  0.4417437446471891  0.34208871087322185  0.6549164556323674  1.0000
  C   C13       1.0  0.5094963571688951  0.3994747673328006  0.606307241427235  1.0000
  H   H1        1.0  0.6101197356347052  0.10563372142732196  0.6216773405941278  1.0000
  H   H2        1.0  0.4788036596004884  0.0219934271621276  0.6367434786079034  1.0000
  H   H3        1.0  0.2989043982439615  0.3455572196822212  0.5980552429416728  1.0000
  H   H4        1.0  0.143845175123243  0.053236367091546326  0.7354269852294515  1.0000
  H   H5        1.0  0.25081756426440444  0.9032009363152039  0.8010410275394906  1.0000
  H   H6        1.0  0.3811740744192634  0.9709531601955654  0.7685565784589778  1.0000
  H   H7        1.0  0.5000640748107474  0.4354183481227401  0.5027776054765525  1.0000
  H   H8        1.0  0.5223854442931832  0.48385077489431744  0.6628963631062774  1.0000
  C   C14       1.0  0.906719781687372  0.9962727725222211  0.5900448027365501  1.0000
  C   C15       1.0  0.911726833253568  0.0056162526209944  0.45369401380452584  1.0000
  C   C16       1.0  0.9143364924279636  0.8932077931508529  0.38461318083733653  1.0000
  C   C17       1.0  0.9118709583279601  0.7703215659768902  0.45371309433477003  1.0000
  C   C18       1.0  0.90686213150502  0.758986642664735  0.5900637769964887  1.0000
  C   C19       1.0  0.9043151486340217  0.8725180883850052  0.6574660802981254  1.0000
  C   C20       1.0  0.9196345389521899  0.9041460354906008  0.24036543789636552  1.0000
  C   C21       1.0  0.8767232928126882  0.9997712396582661  0.164829224377961  1.0000
  C   C22       1.0  0.8817772005026548  0.009867578872903463  0.02906880921812571  1.0000
  C   C23       1.0  0.9296699363066879  0.9248645950810013  0.9671508644484694  1.0000
  C   C24       1.0  0.972569223973386  0.8295524328979575  0.04117548675949668  1.0000
  C   C25       1.0  0.9676493245932283  0.8190573624127991  0.1769538837307918  1.0000
  Cl  Cl1       1.0  0.9359267318087825  0.9377820618092081  0.7968134931046706  1.0000
  H   H9        1.0  0.9047731292633915  0.3201680691075508  0.6419969476776708  1.0000
  H   H10       1.0  0.9146505131725059  0.10049495050084079  0.4010317051180019  1.0000
  H   H11       1.0  0.9128253254187357  0.6834493350985933  0.40078816897074265  1.0000
  H   H12       1.0  0.9004516745758613  0.8645418718233168  0.7626544183110953  1.0000
  H   H13       1.0  0.9049835793173759  0.4272123073357947  0.6420254195175832  1.0000
  H   H14       1.0  0.8385552844880966  0.0655853956414909  0.21062426542385504  1.0000
  H   H15       1.0  0.8482869364595585  0.08360855166700021  0.972120179289146  1.0000
  H   H16       1.0  0.00989609371153445  0.7637325674737049  0.9936699354734158  1.0000
  H   H17       1.0  0.0020975898529582673  0.7455636063553531  0.23243199812157456  1.0000
  C   C26       1.0  0.9068938218667844  0.37767679680355815  0.20866868148875592  1.0000
  C   C27       1.0  0.8359228312703819  0.4418868080675369  0.20146515185832437  1.0000
  C   C28       1.0  0.7998327553949011  0.4743945283667257  0.0806718945416014  1.0000
  C   C29       1.0  0.835670956945258  0.4418261791683351  0.9661818418474684  1.0000
  C   C30       1.0  0.9066880705125191  0.37758267179495925  0.9714399079965883  1.0000
  C   C31       1.0  0.9418620602747069  0.3459016022504584  0.09309619027061511  1.0000
  C   C32       1.0  0.7247545524500039  0.542322876847688  0.07409635928363456  1.0000
  C   C33       1.0  0.7089220486028999  0.6444051221990603  0.15378207280108325  1.0000
  C   C34       1.0  0.6382243316626511  0.7082310695603524  0.14739750412130181  1.0000
  C   C35       1.0  0.5825555889750925  0.6709787006402543  0.06164546405056192  1.0000
  C   C36       1.0  0.5976302987833658  0.5697199456390953  0.9820884261943297  1.0000
  C   C37       1.0  0.6682638165032034  0.50567513807713  0.98807885285457  1.0000
  Br  Br1       1.0  0.48602695414186015  0.7583148137213829  0.05319259037368384  1.0000
  H   H18       1.0  0.934207742773795  0.35303079876937143  0.5389113427848149  1.0000
  H   H19       1.0  0.8080804580536665  0.4651787492430435  0.29011161669201124  1.0000
  H   H20       1.0  0.8085741840853462  0.4682307727026085  0.872690956045964  1.0000
  H   H21       1.0  0.9966048497677713  0.29637870355265994  0.09793643793954042  1.0000
  H   H22       1.0  0.040939997245533544  0.2570514605056995  0.7740206018574227  1.0000
  H   H23       1.0  0.7515085513885271  0.6759633356466783  0.21975106794896915  1.0000
  H   H24       1.0  0.6268430446500426  0.7868469101687366  0.20892010741812372  1.0000
  H   H25       1.0  0.5545977855232191  0.540335260186557  0.9158013645298575  1.0000
  H   H26       1.0  0.6783822311191634  0.42643105872493603  0.9267258743148306  1.0000
  Zn  Zn1       1.0  0.8241020319476714  0.38162839717943553  0.5879966017731113  1.0000
  Zn  Zn2       1.0  0.9894726479776524  0.37363078686443685  0.592111246323417  1.0000
  C   C38       1.0  0.9067243223401303  0.37242695316880703  0.8272596709898453  1.0000
  C   C39       1.0  0.9068521636985989  0.3828337821153289  0.352848349551373  1.0000
  C   C40       1.0  0.9068327296734237  0.6148183479591098  0.5848847320289696  1.0000
  C   C41       1.0  0.9067436996260094  0.1404408297714283  0.5952233563109648  1.0000
  O   O2        1.0  0.969595468726619  0.381523796423034  0.4027978492726274  1.0000
  O   O3        1.0  0.9694934883812808  0.36766595802565644  0.7804327173890264  1.0000
  O   O4        1.0  0.9695801823114198  0.5634001155236872  0.584713218319002  1.0000
  O   O5        1.0  0.96950871839469  0.1857896509561161  0.5985172495598983  1.0000
  O   O6        1.0  0.8440659050977604  0.5694695358183628  0.5815905971256723  1.0000
  O   O7        1.0  0.8439792114740445  0.37373693860453594  0.7773100269860234  1.0000
  O   O8        1.0  0.8440811922822942  0.38759473193705  0.3996735974006187  1.0000
  O   O9        1.0  0.8439944419192825  0.1918605771696256  0.5953930950596864  1.0000
