data_image0
_chemical_formula_structural       NC5NC3OH4C6NH7C7OH5Zn2C4O8
_chemical_formula_sum              "N3 C25 O10 H16 Zn2"
_cell_length_a       13.84702359539666
_cell_length_b       9.274771166103582
_cell_length_c       9.274074313596557
_cell_angle_alpha    86.0140142098405
_cell_angle_beta     90.21930263959183
_cell_angle_gamma    90.59789355945463

_space_group_name_H-M_alt    "P 1"
_space_group_IT_number       1

loop_
  _space_group_symop_operation_xyz
  'x, y, z'

loop_
  _atom_site_type_symbol
  _atom_site_label
  _atom_site_symmetry_multiplicity
  _atom_site_fract_x
  _atom_site_fract_y
  _atom_site_fract_z
  _atom_site_occupancy
  N   N1        1.0  0.9159366821697591  0.5630707148700509  0.40700575245292403  1.0000
  C   C1        1.0  0.8439085388524125  0.5550181487558834  0.4700720337267081  1.0000
  C   C2        1.0  0.7542064791736919  0.5449910028372615  0.5486028421804785  1.0000
  C   C3        1.0  0.6664828590758058  0.554677855423324  0.47273644420719974  1.0000
  C   C4        1.0  0.5787593125340076  0.5451035483564932  0.5477209820634985  1.0000
  C   C5        1.0  0.4887646656347002  0.5550769232386015  0.469611412310738  1.0000
  N   N2        1.0  0.4164206106174342  0.563094753192416  0.40681754528779246  1.0000
  C   C6        1.0  0.5787544472828249  0.5258134861164347  0.6987973165616437  1.0000
  C   C7        1.0  0.666097961282578  0.5161175775774607  0.7747317530719575  1.0000
  C   C8        1.0  0.7541378295786286  0.5256301970348756  0.7002319446151415  1.0000
  O   O1        1.0  0.8412019552132064  0.5159177537001596  0.776297796969261  1.0000
  H   H1        1.0  0.6664912093097243  0.5696222538536333  0.3556954996596542  1.0000
  H   H2        1.0  0.5113082230556012  0.5182779935624765  0.7578135986693393  1.0000
  H   H3        1.0  0.6653108324694744  0.501202827863361  0.8915412644703803  1.0000
  H   H4        1.0  0.8429350187090914  0.5019589270822395  0.8856197921869144  1.0000
  C   C9        1.0  0.16322057680842098  0.1394937480228342  0.4076983203025697  1.0000
  C   C10       1.0  0.14063710140458374  0.22153626804047444  0.2788213944705149  1.0000
  C   C11       1.0  0.12706794883034633  0.1552130569719514  0.14912335596422976  1.0000
  C   C12       1.0  0.13613026922755833  0.005460633470808056  0.14736277325987812  1.0000
  C   C13       1.0  0.15692299573453705  0.9220812199531374  0.27446986380214544  1.0000
  C   C14       1.0  0.1691459102493558  0.9866607716086657  0.40613744986610145  1.0000
  N   N3        1.0  0.10507384222380067  0.2403411985712558  0.01882968300384369  1.0000
  H   H5        1.0  0.27278818359368073  0.22225552890476674  0.7230793835854303  1.0000
  H   H6        1.0  0.13576624350976685  0.3381233077990564  0.278269600617556  1.0000
  H   H7        1.0  0.12614724889174944  0.9529933526284229  0.04757304597854039  1.0000
  H   H8        1.0  0.16116739226245502  0.8058768908900946  0.2703405875883944  1.0000
  H   H9        1.0  0.23903595038492687  0.6917043301606217  0.6207099899088817  1.0000
  H   H10       1.0  0.09841998144997177  0.3524143207762622  0.018785374099478114  1.0000
  H   H11       1.0  0.0951883748020963  0.19191439630484242  0.9214101329681869  1.0000
  C   C15       1.0  0.16499787362952612  0.5589227045552427  0.9836847821510477  1.0000
  C   C16       1.0  0.08109312193830666  0.6015042496845819  0.05352684155280806  1.0000
  C   C17       1.0  0.002024988640658706  0.6556784944629872  0.9742746685590165  1.0000
  C   C18       1.0  0.0050132722622644454  0.6687121676352838  0.8229695629750403  1.0000
  C   C19       1.0  0.08760192239380006  0.6243890796931821  0.7519913167424432  1.0000
  C   C20       1.0  0.16736856565166014  0.5672317328336585  0.8301510091509273  1.0000
  C   C21       1.0  0.9223494410009607  0.7268529824864725  0.7375029686266571  1.0000
  O   O2        1.0  0.846953622918102  0.7670398070107507  0.7981636586799157  1.0000
  H   H12       1.0  0.400703256261165  0.52218367581118  0.09045231415358557  1.0000
  H   H13       1.0  0.9388917788040171  0.6886965644583924  0.03163931273167787  1.0000
  H   H14       1.0  0.08876985437804308  0.6313794882250034  0.6348213531615636  1.0000
  H   H15       1.0  0.3257698139640668  0.5372589007454889  0.5526807663140278  1.0000
  H   H16       1.0  0.9258399336719326  0.7356087054711569  0.6206160293676857  1.0000
  Zn  Zn1       1.0  0.060365527411772035  0.5630738718159829  0.40695975746158036  1.0000
  Zn  Zn2       1.0  0.2719916917063676  0.5630799089792591  0.4068753242714247  1.0000
  C   C22       1.0  0.16687813294002263  0.5599147443107024  0.6701613135817603  1.0000
  C   C23       1.0  0.16548141025520025  0.5662408579649219  0.14367390533472868  1.0000
  C   C24       1.0  0.16800482807263495  0.8264717627919256  0.40068919664496416  1.0000
  C   C25       1.0  0.1643546310032267  0.2996821071972635  0.413146102332643  1.0000
  O   O3        1.0  0.24595467199989884  0.568692895196001  0.1973356862330038  1.0000
  O   O4        1.0  0.2470242244257621  0.5574661968898564  0.6164350369663871  1.0000
  O   O5        1.0  0.24793296656052483  0.7727143750668632  0.3988343936484715  1.0000
  O   O6        1.0  0.24504585742097595  0.3534447262748723  0.41493622149689924  1.0000
  O   O7        1.0  0.08731128947952961  0.7727090545198054  0.3988988602573349  1.0000
  O   O8        1.0  0.08640255924649436  0.5574626086286691  0.6164994235353616  1.0000
  O   O9        1.0  0.08533300168017302  0.5686892396592063  0.19739834009357682  1.0000
  O   O10       1.0  0.08442418732777668  0.353441061481635  0.4149989834327219  1.0000
