data_image0
_chemical_formula_structural       NC9NC3OH6C6BrH3C9H8Zn2C4O8
_chemical_formula_sum              "N2 C31 O9 H17 Br1 Zn2"
_cell_length_a       15.78231758774541
_cell_length_b       10.302969083221269
_cell_length_c       9.275155815604963
_cell_angle_alpha    86.05280197498422
_cell_angle_beta     90.4446892459172
_cell_angle_gamma    89.63144763104106

_space_group_name_H-M_alt    "P 1"
_space_group_IT_number       1

loop_
  _space_group_symop_operation_xyz
  'x, y, z'

loop_
  _atom_site_type_symbol
  _atom_site_label
  _atom_site_symmetry_multiplicity
  _atom_site_fract_x
  _atom_site_fract_y
  _atom_site_fract_z
  _atom_site_occupancy
  N   N1        1.0  0.7920365913737745  0.40057427586495087  0.4129208395461039  1.0000
  C   C1        1.0  0.7436035444117094  0.3187431022203844  0.4396439497759482  1.0000
  C   C2        1.0  0.6834720896803417  0.2171707278633863  0.4728142140375922  1.0000
  C   C3        1.0  0.7032887028322221  0.0895787774800623  0.514393283925729  1.0000
  C   C4        1.0  0.6266330734697779  0.027743362077702113  0.5346268642318641  1.0000
  C   C5        1.0  0.5647385921337968  0.12217636165531842  0.5038994058477977  1.0000
  C   C6        1.0  0.4716690297244426  0.10471792919941247  0.50968228363819  1.0000
  C   C7        1.0  0.41779421680857326  0.2117681572621299  0.4746657090257714  1.0000
  C   C8        1.0  0.3296053233031875  0.19745272252855897  0.47941547697587006  1.0000
  C   C9        1.0  0.2750302053965522  0.30761756188615874  0.44337092523467336  1.0000
  N   N2        1.0  0.23116471734679742  0.3961758685059724  0.41439432712620494  1.0000
  C   C10       1.0  0.2946101568226144  0.07592774788676236  0.5192361917501485  1.0000
  C   C11       1.0  0.34755378683608984  0.9690988804758364  0.554185205998367  1.0000
  C   C12       1.0  0.43555749619886475  0.9830210363619936  0.5495645102687265  1.0000
  O   O1        1.0  0.6010617160622183  0.23409090656525455  0.46737521534995974  1.0000
  H   H1        1.0  0.7658008454519171  0.0465497590347872  0.5283588059371991  1.0000
  H   H2        1.0  0.6180237289152058  0.9260687995010658  0.5677770301812788  1.0000
  H   H3        1.0  0.44428487991256643  0.30633609524473115  0.4436728922062942  1.0000
  H   H4        1.0  0.22650875704559434  0.0638033004120018  0.5232566427769918  1.0000
  H   H5        1.0  0.3203320248878143  0.8751774616234947  0.5849666099354897  1.0000
  H   H6        1.0  0.47474650494183335  0.8984051207780416  0.5772557463580952  1.0000
  C   C13       1.0  0.011604712494645897  0.017127577138206226  0.41366386189542603  1.0000
  C   C14       1.0  0.09954182150760554  0.013521317430245528  0.4382482377167172  1.0000
  C   C15       1.0  0.14316336003840305  0.8947945664167882  0.4504432244464552  1.0000
  C   C16       1.0  0.0995418870340441  0.7784389550554455  0.4382479644631494  1.0000
  C   C17       1.0  0.011604725171745038  0.7796125936279557  0.41366376638796787  1.0000
  C   C18       1.0  0.9680608170882122  0.8995535412298131  0.4014903603028768  1.0000
  Br  Br1       1.0  0.262772967059987  0.8915437907069785  0.48388259788679555  1.0000
  H   H7        1.0  0.13454792238058821  0.1025692282164432  0.448034971496196  1.0000
  H   H8        1.0  0.1345480197049682  0.6874882880709652  0.4480343226041979  1.0000
  H   H9        1.0  0.9002403373927449  0.9013967341910099  0.38253013683390247  1.0000
  C   C19       1.0  0.01005220526186501  0.3951040368359822  0.9904273754752114  1.0000
  C   C20       1.0  0.9437659100854437  0.4590279926757146  0.058019818871097646  1.0000
  C   C21       1.0  0.8831550934254268  0.5315234449565427  0.9765316647403847  1.0000
  C   C22       1.0  0.8877065442120671  0.541611553523607  0.8259651382128013  1.0000
  C   C23       1.0  0.9522877082102331  0.4770071398484719  0.7566586086403784  1.0000
  C   C24       1.0  0.013157216265985199  0.40163611119539866  0.836900218933331  1.0000
  C   C25       1.0  0.8253829349327058  0.6171572885747569  0.7421586181564725  1.0000
  C   C26       1.0  0.773198139615695  0.6804164977017957  0.6719554619349779  1.0000
  C   C27       1.0  0.7098812742742234  0.757170846453172  0.5867643271661231  1.0000
  H   H10       1.0  0.20672684875253655  0.28838759179967943  0.10404516669163133  1.0000
  H   H11       1.0  0.9399590963964053  0.4554672917104676  0.17479858384965263  1.0000
  H   H12       1.0  0.8331523924311777  0.5808211278225786  0.031176907873477603  1.0000
  H   H13       1.0  0.9538532951608677  0.4830963343785624  0.6395175652720266  1.0000
  H   H14       1.0  0.1443862281177849  0.32513784760159564  0.5637581721417675  1.0000
  H   H15       1.0  0.7270997977000964  0.7607285559833543  0.4708231146229189  1.0000
  H   H16       1.0  0.6467733932144408  0.7115716851418734  0.6015788585622062  1.0000
  H   H17       1.0  0.7077368521524423  0.8574399349124024  0.6232618469068149  1.0000
  Zn  Zn1       1.0  0.9187595096999546  0.3993015868138383  0.41335437234898953  1.0000
  Zn  Zn2       1.0  0.10444181374574829  0.39743805237952284  0.41397257612678723  1.0000
  C   C28       1.0  0.012568425136970875  0.39522942856513216  0.6768987558924203  1.0000
  C   C29       1.0  0.010634926472651518  0.40151182946804825  0.15042834079394085  1.0000
  C   C30       1.0  0.011579294764124668  0.6354424317675034  0.4079204643719261  1.0000
  C   C31       1.0  0.011623993766940673  0.16129726768867458  0.41940670894346077  1.0000
  O   O2        1.0  0.0812959597280305  0.40294947766761324  0.2043607314942879  1.0000
  O   O3        1.0  0.08283596273438593  0.3923764182369345  0.6234351526675841  1.0000
  O   O4        1.0  0.08203628303811888  0.5863514773290273  0.40623327603596104  1.0000
  O   O5        1.0  0.08209557566710263  0.20897442766476312  0.42156249985028343  1.0000
  O   O6        1.0  0.9411056844143144  0.5877652121658858  0.40576444840694964  1.0000
  O   O7        1.0  0.9419053638248535  0.39379171228808335  0.6229662481910032  1.0000
  O   O8        1.0  0.9403653545185485  0.4043647131047474  0.2038900942031685  1.0000
  O   O9        1.0  0.9411649708505299  0.21038965464994264  0.42109197061624837  1.0000
