data_image0
_chemical_formula_structural       NC9NC3OH6C8NH6C7ONH7Zn2C4O8
_chemical_formula_sum              "N4 C31 O10 H19 Zn2"
_cell_length_a       15.78231758774541
_cell_length_b       9.27426342843186
_cell_length_c       10.297855452804892
_cell_angle_alpha    85.50121379664337
_cell_angle_beta     90.0760746706638
_cell_angle_gamma    90.24871893605766

_space_group_name_H-M_alt    "P 1"
_space_group_IT_number       1

loop_
  _space_group_symop_operation_xyz
  'x, y, z'

loop_
  _atom_site_type_symbol
  _atom_site_label
  _atom_site_symmetry_multiplicity
  _atom_site_fract_x
  _atom_site_fract_y
  _atom_site_fract_z
  _atom_site_occupancy
  N   N1        1.0  0.8079220939209044  0.5701352241771789  0.5686724701456665  1.0000
  C   C1        1.0  0.7588119327455244  0.47898530988440546  0.5928131152669751  1.0000
  C   C2        1.0  0.6978400132302841  0.3658461101264223  0.6227778742074853  1.0000
  C   C3        1.0  0.716601197552726  0.22372507291942645  0.660339015394833  1.0000
  C   C4        1.0  0.6394337558996551  0.1548476268747356  0.678617180077654  1.0000
  C   C5        1.0  0.5783202409469606  0.2600334445366049  0.6508589248601742  1.0000
  C   C6        1.0  0.48510590800312936  0.2405861600599202  0.6560827856665543  1.0000
  C   C7        1.0  0.43211710497229866  0.3598275304167917  0.6244502609156355  1.0000
  C   C8        1.0  0.3438094733079067  0.3438812206982287  0.6287408635970364  1.0000
  C   C9        1.0  0.2901461785121529  0.46659198367404314  0.5961797261331072  1.0000
  N   N2        1.0  0.24701368395908238  0.5652356057479719  0.5700034847841853  1.0000
  C   C10       1.0  0.3078082316283476  0.20851606580915694  0.664713103881866  1.0000
  C   C11       1.0  0.3598676654299618  0.08952122199998723  0.6962845872006319  1.0000
  C   C12       1.0  0.4479868563156716  0.10502946148876256  0.6921105821207153  1.0000
  O   O1        1.0  0.6155693170257134  0.38469234778892986  0.6178643066497802  1.0000
  H   H1        1.0  0.7787576232642724  0.17579677971909183  0.6729551203450139  1.0000
  H   H2        1.0  0.629983304353234  0.04159507841311004  0.7085638955940204  1.0000
  H   H3        1.0  0.45939069261670396  0.46516562490357555  0.5964527570809453  1.0000
  H   H4        1.0  0.23960627563188022  0.19501037094666307  0.6683448984017868  1.0000
  H   H5        1.0  0.3318683296574158  0.9849032732362604  0.7240911092450255  1.0000
  H   H6        1.0  0.48647548506772076  0.010777162082654229  0.7171256717469072  1.0000
  C   C13       1.0  0.024790777848407775  0.14413174411069352  0.5696058905316568  1.0000
  C   C14       1.0  0.01385172618679475  0.2276592229234824  0.450861545966639  1.0000
  C   C15       1.0  0.011222653799242805  0.16282251022635236  0.3332169906695833  1.0000
  C   C16       1.0  0.020156334208436526  0.012941700201799071  0.3314089553144406  1.0000
  C   C17       1.0  0.028821644142874338  0.9279352964419002  0.44935016854876575  1.0000
  C   C18       1.0  0.03015301856659835  0.9912279570603514  0.5690813300904307  1.0000
  C   C19       1.0  0.016057724660164748  0.9430483945266218  0.20465995194453981  1.0000
  C   C20       1.0  0.9281524888805015  0.9051040491666403  0.17552469156254327  1.0000
  N   N3        1.0  0.8587707598537423  0.8751540371915456  0.15253744143000073  1.0000
  H   H7        1.0  0.09787651724972313  0.22146769268261715  0.8692983006256534  1.0000
  H   H8        1.0  0.0030093405776618867  0.22987668736785308  0.24317463384643717  1.0000
  H   H9        1.0  0.032480165751138886  0.8114055680097061  0.44765027715549266  1.0000
  H   H10       1.0  0.07606169470863584  0.6931424799773492  0.7726054156294035  1.0000
  H   H11       1.0  0.055201865605676956  0.8434943881352734  0.20980536538966543  1.0000
  H   H12       1.0  0.041087168635820515  0.017613203954788496  0.12390131605549339  1.0000
  C   C21       1.0  0.02750603919949811  0.5678228367061446  0.18790160206482143  1.0000
  C   C22       1.0  0.9410620470257917  0.6035618357932104  0.18422824738708557  1.0000
  C   C23       1.0  0.8970229625552453  0.6204485900243557  0.06536752830912262  1.0000
  C   C24       1.0  0.9409569745694982  0.6032385256485866  0.9489952234754857  1.0000
  C   C25       1.0  0.027437741492262177  0.5675367766307526  0.9507855834495024  1.0000
  C   C26       1.0  0.07009284986759368  0.5497304532212677  0.07069740714978834  1.0000
  C   C27       1.0  0.8057866667750873  0.6585379006064889  0.06406333850704328  1.0000
  O   O2        1.0  0.7748238272797501  0.7204324059529008  0.15773971247528618  1.0000
  N   N4        1.0  0.7513809174646512  0.6250364628000595  0.9592961599302298  1.0000
  H   H13       1.0  0.1909550948178239  0.500792349331493  0.40207601204535126  1.0000
  H   H14       1.0  0.9076459367736313  0.6170856476664006  0.2742762634078706  1.0000
  H   H15       1.0  0.9085166112163096  0.6202330675078804  0.856495054668341  1.0000
  H   H16       1.0  0.13671553337278286  0.5221824268885513  0.07277509670764126  1.0000
  H   H17       1.0  0.1912201799024641  0.5023278431059892  0.7467344822582551  1.0000
  H   H18       1.0  0.6883298505495488  0.6587804427980437  0.9579975425974756  1.0000
  H   H19       1.0  0.7711012741601171  0.5590105833880366  0.8877102929977863  1.0000
  Zn  Zn1       1.0  0.9346344132014587  0.5687174446322023  0.5690640695072309  1.0000
  Zn  Zn2       1.0  0.12030126071755105  0.5666416093925042  0.5696225110661806  1.0000
  C   C28       1.0  0.027412395150613778  0.5618449450385892  0.8065877412389832  1.0000
  C   C29       1.0  0.02752531775323597  0.5735159061439921  0.33209897179648246  1.0000
  C   C30       1.0  0.02913553849892224  0.8311106945737624  0.5640042913465921  1.0000
  C   C31       1.0  0.025802100074155943  0.3042484243974184  0.5746824918233393  1.0000
  O   O3        1.0  0.09799134900135148  0.5746324911476846  0.3807048558956565  1.0000
  O   O4        1.0  0.09786319827448621  0.559151761166256  0.7584053281177368  1.0000
  O   O5        1.0  0.0992537083703437  0.7765872693592104  0.5625174722258457  1.0000
  O   O6        1.0  0.09660077562400743  0.3571969940174362  0.5765926141972718  1.0000
  O   O7        1.0  0.9583348349360301  0.778162060717223  0.5620939661787377  1.0000
  O   O8        1.0  0.9569443358119725  0.5607282854456228  0.7579817517387605  1.0000
  O   O9        1.0  0.957072486416815  0.5762089657500202  0.38027971784806813  1.0000
  O   O10       1.0  0.9556819129619858  0.35877345826701945  0.5761675735425574  1.0000
