data_image0
_chemical_formula_structural       NC5OC5NC4H8C9H8C6OCH7Zn2C4O8
_chemical_formula_sum              "N2 C34 O10 H23 Zn2"
_cell_length_a       19.189071930511275
_cell_length_b       9.275152443626249
_cell_length_c       9.273891588657152
_cell_angle_alpha    85.88202133130156
_cell_angle_beta     89.6582401659116
_cell_angle_gamma    90.56463589314393

_space_group_name_H-M_alt    "P 1"
_space_group_IT_number       1

loop_
  _space_group_symop_operation_xyz
  'x, y, z'

loop_
  _atom_site_type_symbol
  _atom_site_label
  _atom_site_symmetry_multiplicity
  _atom_site_fract_x
  _atom_site_fract_y
  _atom_site_fract_z
  _atom_site_occupancy
  N   N1        1.0  0.6680896178399737  0.564215588724454  0.40417114378689456  1.0000
  C   C1        1.0  0.6139349059678201  0.6152596138211259  0.38369332905758524  1.0000
  C   C2        1.0  0.5465734172836133  0.6787498721157972  0.35822200771269297  1.0000
  C   C3        1.0  0.5376983039813342  0.7853954151705405  0.24529146107684505  1.0000
  C   C4        1.0  0.4722639091495094  0.847150474313116  0.22068845955714875  1.0000
  C   C5        1.0  0.41504928746973196  0.8021314058803672  0.307512228432879  1.0000
  O   O1        1.0  0.35047013945592853  0.8678976859092509  0.2803815774981835  1.0000
  C   C6        1.0  0.2851088920886117  0.8019152009594781  0.3068867622958684  1.0000
  C   C7        1.0  0.2286750328804461  0.888403133365466  0.3401733284657411  1.0000
  C   C8        1.0  0.1625093605897399  0.8269736944221808  0.3657193555943563  1.0000
  C   C9        1.0  0.15211807412754996  0.6782429360660682  0.3567541067844868  1.0000
  C   C10       1.0  0.08400399402253211  0.614980304807073  0.38288445280764677  1.0000
  N   N2        1.0  0.0292442765302524  0.5641193518135719  0.4038925775715281  1.0000
  C   C11       1.0  0.20808268238096814  0.5913933655501449  0.32134068316557246  1.0000
  C   C12       1.0  0.2742395785443899  0.6528670518965887  0.29584293414824026  1.0000
  C   C13       1.0  0.4244066603457609  0.696504709870698  0.42223549656293036  1.0000
  C   C14       1.0  0.4898319391367784  0.6347457064284416  0.4469066350912876  1.0000
  H   H1        1.0  0.5813042095588196  0.8208895431693806  0.17647598684047036  1.0000
  H   H2        1.0  0.4658640884520657  0.9297156140334875  0.13331031050319986  1.0000
  H   H3        1.0  0.23624844824816  0.0035186102980753276  0.3470746997036225  1.0000
  H   H4        1.0  0.119520203098487  0.8953815369602672  0.39223596078886086  1.0000
  H   H5        1.0  0.20050821169880803  0.476432234241413  0.31269085253249584  1.0000
  H   H6        1.0  0.31653081059014343  0.5846568338922177  0.2655367563803088  1.0000
  H   H7        1.0  0.38151420688602994  0.6634537240122864  0.49376537237899765  1.0000
  H   H8        1.0  0.49624073501261573  0.5533554252848849  0.5354921612899777  1.0000
  C   C15       1.0  0.8466106321927576  0.14054902687305737  0.40550496996355334  1.0000
  C   C16       1.0  0.8217962228791834  0.22218973612265527  0.28307232231789103  1.0000
  C   C17       1.0  0.8034656851952603  0.15562727854221947  0.1583420702505569  1.0000
  C   C18       1.0  0.8096630893438437  0.006240700295643052  0.1535747846622375  1.0000
  C   C19       1.0  0.8331175110752242  0.9229028652449023  0.27497360510364666  1.0000
  C   C20       1.0  0.8507298708646999  0.9877749955625246  0.40257119585060547  1.0000
  C   C21       1.0  0.7911254118781045  0.9379300911591497  0.024408421100513337  1.0000
  C   C22       1.0  0.7756044651770806  0.8807024971323741  0.9162518423475351  1.0000
  C   C23       1.0  0.756772870695889  0.8112549328179245  0.785022802284439  1.0000
  H   H9        1.0  0.9459821601366041  0.22477234151689893  0.6932874990431426  1.0000
  H   H10       1.0  0.8181264903625636  0.33870410710639165  0.2826217652373546  1.0000
  H   H11       1.0  0.7850813469073619  0.22102931821287844  0.06500556955722958  1.0000
  H   H12       1.0  0.8360622680156341  0.8065557566478206  0.27095043371128646  1.0000
  H   H13       1.0  0.9153916042694683  0.6942355469057357  0.5994073331030347  1.0000
  H   H14       1.0  0.7694768058070992  0.6946512653286745  0.7984785370502356  1.0000
  H   H15       1.0  0.7001055514705252  0.8236744801070353  0.7653342133201975  1.0000
  H   H16       1.0  0.7864500750380815  0.8627534148375253  0.69170186009032  1.0000
  C   C24       1.0  0.8497933095625508  0.5603411668623228  0.9807751180715621  1.0000
  C   C25       1.0  0.9071592928760555  0.6212564058066166  0.04909381076273189  1.0000
  C   C26       1.0  0.9606247656743311  0.6929446031853309  0.9689948060204027  1.0000
  C   C27       1.0  0.9569159525368367  0.7040789813706945  0.8175185435433467  1.0000
  C   C28       1.0  0.901009796714376  0.6422898829493562  0.7478595482756032  1.0000
  C   C29       1.0  0.8475471719707461  0.5679827684160923  0.8273010610395217  1.0000
  O   O2        1.0  0.016078967226502264  0.7520842274394548  0.04395402470330234  1.0000
  C   C30       1.0  0.07383431467699397  0.8279880845042654  0.9765704996755042  1.0000
  H   H17       1.0  0.6836043210604736  0.4717841348894447  0.09222701758471216  1.0000
  H   H18       1.0  0.9973276567213303  0.759153703191159  0.752374695657867  1.0000
  H   H19       1.0  0.9004836460600725  0.649724788685805  0.630753061083244  1.0000
  H   H20       1.0  0.7366906141352919  0.5026421563882209  0.5521700365149598  1.0000
  H   H21       1.0  0.05560260656174877  0.925612366885455  0.9118513183864473  1.0000
  H   H22       1.0  0.10254317097705191  0.7563862799202357  0.9063833321302226  1.0000
  H   H23       1.0  0.10967456287449084  0.8624595128751157  0.06126712984333626  1.0000
  Zn  Zn1       1.0  0.7723110189683237  0.5641840435554928  0.40409908619764745  1.0000
  Zn  Zn2       1.0  0.9250228043497187  0.564139246545863  0.40397646069320436  1.0000
  C   C31       1.0  0.8479422559613435  0.560791545568373  0.6673094508886557  1.0000
  C   C32       1.0  0.8493932434389074  0.5675335654733646  0.14076622982925535  1.0000
  C   C33       1.0  0.8499628954038243  0.8275793775748752  0.39738210001288365  1.0000
  C   C34       1.0  0.8473725432560104  0.3007440010165967  0.4106936635930001  1.0000
  O   O3        1.0  0.9072122736825072  0.5699241065036561  0.19441419452469444  1.0000
  O   O4        1.0  0.9060279331217982  0.5583659126387088  0.6135680051273849  1.0000
  O   O5        1.0  0.90765883981089  0.773800474734847  0.3955997549477668  1.0000
  O   O6        1.0  0.9055813152201512  0.35448955376666547  0.41238233663897095  1.0000
  O   O7        1.0  0.7917524559848813  0.7738337363514798  0.3956932102861401  1.0000
  O   O8        1.0  0.7901215579231953  0.5584009067223963  0.6136613776120448  1.0000
  O   O9        1.0  0.7913059028838765  0.5699590346744933  0.1945058342600005  1.0000
  O   O10       1.0  0.789674944081775  0.3545244725951442  0.4124740844738781  1.0000
