data_image0
_chemical_formula_structural       NC5NC3OH4C9H8C6OCH7Zn2C4O8
_chemical_formula_sum              "N2 C28 O10 H19 Zn2"
_cell_length_a       13.84702359539666
_cell_length_b       9.275152443626249
_cell_length_c       9.273891588657152
_cell_angle_alpha    85.88202133130156
_cell_angle_beta     89.66582561404928
_cell_angle_gamma    90.5743638874884

_space_group_name_H-M_alt    "P 1"
_space_group_IT_number       1

loop_
  _space_group_symop_operation_xyz
  'x, y, z'

loop_
  _atom_site_type_symbol
  _atom_site_label
  _atom_site_symmetry_multiplicity
  _atom_site_fract_x
  _atom_site_fract_y
  _atom_site_fract_z
  _atom_site_occupancy
  N   N1        1.0  0.9258329804834705  0.5644382737646165  0.4043381545676832  1.0000
  C   C1        1.0  0.8533986196033511  0.5563353208060682  0.46742288922998215  1.0000
  C   C2        1.0  0.763190733468814  0.5462454326492141  0.5459766760477749  1.0000
  C   C3        1.0  0.6759557780600445  0.5559928987348124  0.47008807947137377  1.0000
  C   C4        1.0  0.5877492470115332  0.546358682727361  0.5450945579833375  1.0000
  C   C5        1.0  0.4982577133146243  0.5563944632997901  0.46696213309885476  1.0000
  N   N2        1.0  0.4263181211943693  0.5644624624557177  0.40414989232082243  1.0000
  C   C6        1.0  0.5867712807772669  0.5269479179561782  0.6962150978913539  1.0000
  C   C7        1.0  0.6736256919421936  0.5171913415325342  0.7721717535097385  1.0000
  C   C8        1.0  0.7621454224892878  0.5267634826699923  0.6976501458991983  1.0000
  O   O1        1.0  0.8487195987580215  0.5169902664729205  0.7737382554174999  1.0000
  H   H1        1.0  0.6767180031731762  0.5710308071085732  0.3530128881848298  1.0000
  H   H2        1.0  0.5189449255355129  0.519365274303879  0.755248648421804  1.0000
  H   H3        1.0  0.6720861789124847  0.5021832667855024  0.8890154437698402  1.0000
  H   H4        1.0  0.8497485060672939  0.502944096969778  0.8830922388114495  1.0000
  C   C9        1.0  0.17322590260602255  0.1408312158453113  0.40571660789195546  1.0000
  C   C10       1.0  0.1388383026190605  0.22246365405224247  0.283277757075695  1.0000
  C   C11       1.0  0.11343599747227431  0.15589508660808285  0.1585429226928614  1.0000
  C   C12       1.0  0.1220243080834982  0.006510574056219692  0.15377718634775484  1.0000
  C   C13       1.0  0.15452724870288304  0.92318055674236  0.2751818699865276  1.0000
  C   C14       1.0  0.17893430895620255  0.9880585575434357  0.40278386351700757  1.0000
  C   C15       1.0  0.09633495036703435  0.9381937860129737  0.02460618868918907  1.0000
  C   C16       1.0  0.07482615280392668  0.880961018604444  0.916445729969576  1.0000
  C   C17       1.0  0.04872948735633731  0.8115071774159615  0.7852119823354973  1.0000
  H   H5        1.0  0.31093413131477154  0.2250876526214247  0.6935239781246278  1.0000
  H   H6        1.0  0.13375281812309758  0.3389768018549699  0.28282628262587717  1.0000
  H   H7        1.0  0.08795913590042082  0.2212909984824092  0.06520182623481974  1.0000
  H   H8        1.0  0.15860806813509298  0.8068344296802402  0.27115943473216825  1.0000
  H   H9        1.0  0.2685419959532247  0.6945406616848279  0.5996361650777788  1.0000
  H   H10       1.0  0.06633449392103663  0.6949077443530892  0.7986708928640436  1.0000
  H   H11       1.0  0.9702003923764575  0.8239078365740186  0.7655092275273692  1.0000
  H   H12       1.0  0.08985590784672447  0.8630155513262079  0.6918984589261298  1.0000
  C   C18       1.0  0.17763643017075248  0.5606244166722534  0.9809875516139339  1.0000
  C   C19       1.0  0.25713372797523393  0.6215587766236053  0.04932058480285684  1.0000
  C   C20       1.0  0.3312257310718043  0.6932647949063415  0.9692349454985153  1.0000
  C   C21       1.0  0.32608608897970814  0.704397936884495  0.8177577558827026  1.0000
  C   C22       1.0  0.24861180784983716  0.6425902040401354  0.7480847850486781  1.0000
  C   C23       1.0  0.17452375156347233  0.5682652695521531  0.8275129330865743  1.0000
  O   O2        1.0  0.40807369777030056  0.7524229029398415  0.04420802676698976  1.0000
  C   C24       1.0  0.4881105731251807  0.8283460107930544  0.9768389395712047  1.0000
  H   H13       1.0  0.947333125883713  0.47201199123030957  0.09239790677137583  1.0000
  H   H14       1.0  0.3820882891822974  0.7594861285774575  0.7526240102201704  1.0000
  H   H15       1.0  0.24788267269274233  0.6500249344020885  0.6309781663278109  1.0000
  H   H16       1.0  0.020899664904606045  0.5028877072463929  0.5523541963512768  1.0000
  H   H17       1.0  0.46284522516450416  0.925964216252009  0.9121152006723211  1.0000
  H   H18       1.0  0.5278950650328524  0.756753775333656  0.9066589487405121  1.0000
  H   H19       1.0  0.5377776880209906  0.8628293852964236  0.0615445291775245  1.0000
  Zn  Zn1       1.0  0.07026212271261367  0.5644414672688458  0.40429215051543554  1.0000
  Zn  Zn2       1.0  0.28188883212283944  0.5644475715592108  0.40420770030040143  1.0000
  C   C25       1.0  0.17507125563895598  0.5610741783922972  0.6675214216998316  1.0000
  C   C26       1.0  0.17708202189714256  0.5678166819348069  0.14097856336205594  1.0000
  C   C27       1.0  0.17787144080507677  0.827862683910501  0.3975945759487647  1.0000
  C   C28       1.0  0.1742817525574638  0.3010264439460917  0.41090549198591164  1.0000
  O   O3        1.0  0.2572071483317786  0.5702264949800014  0.19464098180909883  1.0000
  O   O4        1.0  0.25556589913115  0.5586679063552527  0.613794496347255  1.0000
  O   O5        1.0  0.2578259959213589  0.7741030120588828  0.39582665386593385  1.0000
  O   O6        1.0  0.2549469797946151  0.3547913986182625  0.41260871621213613  1.0000
  O   O7        1.0  0.09720390282306687  0.774097640209213  0.3958911346249334  1.0000
  O   O8        1.0  0.09494381798864393  0.558664266975514  0.6138588942546974  1.0000
  O   O9        1.0  0.09658507328671795  0.5702227896888796  0.19470364696828724  1.0000
  O   O10       1.0  0.09432490427873752  0.3547876839846682  0.41267148947084076  1.0000
