data_image0
_chemical_formula_structural       NC5NC3OH4C6BrH5C6NCOH5Zn2C4O8
_chemical_formula_sum              "N3 C25 O10 H14 Br1 Zn2"
_cell_length_a       13.84702359539666
_cell_length_b       9.276564384272257
_cell_length_c       9.27373355559583
_cell_angle_alpha    86.1252681461469
_cell_angle_beta     89.99675348252173
_cell_angle_gamma    90.58678901707502

_space_group_name_H-M_alt    "P 1"
_space_group_IT_number       1

loop_
  _space_group_symop_operation_xyz
  'x, y, z'

loop_
  _atom_site_type_symbol
  _atom_site_label
  _atom_site_symmetry_multiplicity
  _atom_site_fract_x
  _atom_site_fract_y
  _atom_site_fract_z
  _atom_site_occupancy
  N   N1        1.0  0.9198670118832536  0.5611926394302005  0.40859765041680607  1.0000
  C   C1        1.0  0.8476762527653744  0.5532003061320194  0.4716539039135305  1.0000
  C   C2        1.0  0.7577717021518938  0.5432481627617034  0.5501722256676396  1.0000
  C   C3        1.0  0.6702437028436997  0.552862557525998  0.474317890653807  1.0000
  C   C4        1.0  0.5823268093870969  0.5433598660555377  0.5492905057165258  1.0000
  C   C5        1.0  0.49253356726071745  0.5532586406986744  0.4711933556991366  1.0000
  N   N2        1.0  0.4203514256203518  0.561216497999341  0.4084094731844583  1.0000
  C   C6        1.0  0.5819323952591117  0.5242140925376872  0.7003428185015623  1.0000
  C   C7        1.0  0.6690801130804825  0.5145907068988194  0.776265180871246  1.0000
  C   C8        1.0  0.7573120783945654  0.524032173657476  0.701777218335697  1.0000
  O   O1        1.0  0.8441800689643512  0.5143923786701647  0.777830975894704  1.0000
  H   H1        1.0  0.6705538420130996  0.5676951734387606  0.35729555617882025  1.0000
  H   H2        1.0  0.5143339981214632  0.5167349647728063  0.7593497167508597  1.0000
  H   H3        1.0  0.6679917920672308  0.4997875186412309  0.8930561190926976  1.0000
  H   H4        1.0  0.8456312467635314  0.5005379624244441  0.8871355883662925  1.0000
  C   C9        1.0  0.16720430926593388  0.13772741826800372  0.40887318050594246  1.0000
  C   C10       1.0  0.15480155362035797  0.21981200673813928  0.2771540927529874  1.0000
  C   C11       1.0  0.15138662488576493  0.15342207443752476  0.14666199053312054  1.0000
  C   C12       1.0  0.1603524888326342  0.004001949473116496  0.1454111841025767  1.0000
  C   C13       1.0  0.17105353397044953  0.920202567123613  0.2751390262693132  1.0000
  C   C14       1.0  0.17302328130968148  0.9846707185319985  0.40814632553652985  1.0000
  Br  Br1       1.0  0.15639069316290155  0.9137217061313311  0.966352947889241  1.0000
  H   H5        1.0  0.13893328060790378  0.4027938722176587  0.6431925100725229  1.0000
  H   H6        1.0  0.1500352541601857  0.33644168433150656  0.27468855151840366  1.0000
  H   H7        1.0  0.1426878962367688  0.21856416838738757  0.046275627139529936  1.0000
  H   H8        1.0  0.17552118950716689  0.8039294399989482  0.27203009312100845  1.0000
  H   H9        1.0  0.22634312080360558  0.689150337330211  0.6325926348300954  1.0000
  C   C15       1.0  0.17002731687572736  0.5566555934075479  0.9852866920040535  1.0000
  C   C16       1.0  0.08121043678251638  0.5483743586611918  0.059278641605911  1.0000
  C   C17       1.0  0.9933521038438253  0.5517797632204979  0.9843592845263424  1.0000
  C   C18       1.0  0.9943171153811601  0.568153946144083  0.8329971774167566  1.0000
  C   C19       1.0  0.08166709787088756  0.5742832345023603  0.7578036280925153  1.0000
  C   C20       1.0  0.17020026567657176  0.5657425522925812  0.831732884903956  1.0000
  N   N3        1.0  0.9042711189247674  0.546717652068252  0.06441160257862255  1.0000
  C   C21       1.0  0.8168088641494207  0.4803069676973053  0.01771889185175946  1.0000
  O   O2        1.0  0.8157767091282445  0.40399089437257807  0.9104337426246296  1.0000
  H   H10       1.0  0.3982867327703694  0.656800414339781  0.0814286145868488  1.0000
  H   H11       1.0  0.9276873444742864  0.5777522306555201  0.7723994104898505  1.0000
  H   H12       1.0  0.32465646633997003  0.6270966686462747  0.5465160656847754  1.0000
  H   H13       1.0  0.9041887040641763  0.5850612599090108  0.16779782594552284  1.0000
  H   H14       1.0  0.7508853808471565  0.49239788914899635  0.07815418001328565  1.0000
  Zn  Zn1       1.0  0.0642959760768409  0.5611957531600189  0.4085516600650294  1.0000
  Zn  Zn2       1.0  0.275922358699789  0.5612017109278373  0.4084672356299412  1.0000
  C   C22       1.0  0.1701259510325266  0.5582800153729839  0.6717413419805442  1.0000
  C   C23       1.0  0.17009470722780473  0.5641192698438924  0.14527769268660284  1.0000
  C   C24       1.0  0.1719172239579081  0.8245187740672941  0.40254062524243417  1.0000
  C   C25       1.0  0.16830335020104292  0.29787877939132157  0.41447848777771695  1.0000
  O   O3        1.0  0.25042839012601625  0.5666201174633083  0.19894010081728264  1.0000
  O   O4        1.0  0.25041178828473876  0.5557825972104922  0.6180144437160733  1.0000
  O   O5        1.0  0.2518571814997559  0.7707737779622634  0.4006329594554576  1.0000
  O   O6        1.0  0.24898292474604625  0.35162894586540666  0.4163214770365886  1.0000
  O   O7        1.0  0.09123533781289474  0.7707685182219053  0.4006974186796095  1.0000
  O   O8        1.0  0.08978995648156873  0.5557790692278499  0.6180788246084495  1.0000
  O   O9        1.0  0.0898065576877598  0.5666165206258771  0.19900274899271997  1.0000
  O   O10       1.0  0.08836109225505329  0.35162533987356115  0.41638423327456325  1.0000
