data_image0
_chemical_formula_structural       NC9NC3OH6C6FH3C6SCH6Zn2C4O8
_chemical_formula_sum              "N2 C29 O9 H15 F1 S1 Zn2"
_cell_length_a       15.78231758774541
_cell_length_b       9.275642734913905
_cell_length_c       10.302812801239593
_cell_angle_alpha    85.47815978286455
_cell_angle_beta     90.08384720459999
_cell_angle_gamma    90.23470761467162

_space_group_name_H-M_alt    "P 1"
_space_group_IT_number       1

loop_
  _space_group_symop_operation_xyz
  'x, y, z'

loop_
  _atom_site_type_symbol
  _atom_site_label
  _atom_site_symmetry_multiplicity
  _atom_site_fract_x
  _atom_site_fract_y
  _atom_site_fract_z
  _atom_site_occupancy
  N   N1        1.0  0.80756772938043  0.569454852113747  0.568351789711097  1.0000
  C   C1        1.0  0.7584728701117839  0.4783223365880139  0.5925409768596921  1.0000
  C   C2        1.0  0.6975199440136101  0.3652047330604545  0.6225659880774661  1.0000
  C   C3        1.0  0.7163049800243965  0.22311079442322382  0.6602028561336635  1.0000
  C   C4        1.0  0.6391491045027623  0.15424650936027406  0.6785176831880608  1.0000
  C   C5        1.0  0.5780179402639449  0.25941228645774533  0.650703360471725  1.0000
  C   C6        1.0  0.4848068786130552  0.23996874158420933  0.6559375407318879  1.0000
  C   C7        1.0  0.4317980531399733  0.3591873315683259  0.6242415401943574  1.0000
  C   C8        1.0  0.34349310449798315  0.3432440909196993  0.6285406009465214  1.0000
  C   C9        1.0  0.28980920395888426  0.46593140762387697  0.595914145019967  1.0000
  N   N2        1.0  0.24666014493147892  0.5645561814376079  0.5696853967077281  1.0000
  C   C10       1.0  0.30751459826545235  0.20790482014059422  0.6645848685323781  1.0000
  C   C11       1.0  0.3595940135032802  0.08893271124015675  0.6962196941921978  1.0000
  C   C12       1.0  0.4477105949597298  0.10443796549435483  0.6920374640437547  1.0000
  O   O1        1.0  0.6152460909254892  0.3840474024925567  0.6176423444460013  1.0000
  H   H1        1.0  0.7784694448317551  0.1751916207659314  0.6728445247060574  1.0000
  H   H2        1.0  0.6297176611054899  0.041015560748193465  0.7085247357444426  1.0000
  H   H3        1.0  0.45905394815285694  0.46450528185749534  0.5961879887441093  1.0000
  H   H4        1.0  0.2393149144596397  0.19440172382495557  0.6682238276758743  1.0000
  H   H5        1.0  0.33161224944414086  0.9843347691166882  0.7240818804665938  1.0000
  H   H6        1.0  0.48621505115448094  0.010203676830450325  0.7171027210781526  1.0000
  C   C13       1.0  0.0244979269638914  0.14349074431916642  0.5695688792787652  1.0000
  C   C14       1.0  0.008098247221067993  0.2269865593086087  0.45223353911236375  1.0000
  C   C15       1.0  0.9996907501922196  0.1618033334571538  0.3353229663846047  1.0000
  C   C16       1.0  0.007619560241381998  0.012424115006338231  0.33368179180828644  1.0000
  C   C17       1.0  0.022487909703352103  0.9273558958030205  0.44919633344084114  1.0000
  C   C18       1.0  0.029737982074534687  0.9905091168884027  0.5684795387724049  1.0000
  F   F1        1.0  0.984818833830292  0.2440687131258872  0.2229786436269099  1.0000
  H   H7        1.0  0.11205037903029264  0.22165979206654018  0.8598262086313526  1.0000
  H   H8        1.0  0.0014332947148707452  0.9620317883464004  0.24286423497125023  1.0000
  H   H9        1.0  0.08529958912171892  0.6924650095234478  0.7655398438699057  1.0000
  C   C19       1.0  0.027117970260831504  0.566999941071936  0.1877757574074015  1.0000
  C   C20       1.0  0.999434223538721  0.7111414930760471  0.17630672931926353  1.0000
  C   C21       1.0  0.9854399180739583  0.7826514993879169  0.053624127964520214  1.0000
  C   C22       1.0  0.9994341462194656  0.7111413425352013  0.9411555595927334  1.0000
  C   C23       1.0  0.027117915244331468  0.5669999319659175  0.9502726608825293  1.0000
  C   C24       1.0  0.04079832744596068  0.4956212359771044  0.0741212939680771  1.0000
  S   S1        1.0  0.9502445075717348  0.9669184883429482  0.04046599436512532  1.0000
  C   C25       1.0  0.8384853668314398  0.917773196068383  0.04370445203973628  1.0000
  H   H10       1.0  0.9884370849488746  0.7683949408100335  0.2623178380409803  1.0000
  H   H11       1.0  0.9884369140338821  0.7683947349514579  0.8469675248108768  1.0000
  H   H12       1.0  0.06213660523320704  0.3844290784633307  0.08206141041832837  1.0000
  H   H13       1.0  0.8230644434919507  0.8537822534005066  0.9600950121772667  1.0000
  H   H14       1.0  0.823064815385741  0.8537837068756969  0.1363297034383908  1.0000
  H   H15       1.0  0.7998880664697838  0.01775596031991267  0.036520829185747505  1.0000
  Zn  Zn1       1.0  0.9342802881123327  0.5680373492334276  0.5687441359369219  1.0000
  Zn  Zn2       1.0  0.11994748488654601  0.5659619134792864  0.5693036785859813  1.0000
  C   C26       1.0  0.02708049378644349  0.5612545170548093  0.8061518157754425  1.0000
  C   C27       1.0  0.02714931794996354  0.572746542700812  0.33189612994357387  1.0000
  C   C28       1.0  0.028743123683244706  0.8304046669714328  0.5635119108108748  1.0000
  C   C29       1.0  0.025486613978446856  0.3035946607577514  0.5745361061623845  1.0000
  O   O2        1.0  0.0976195331595337  0.5738812457773796  0.38047659513358983  1.0000
  O   O3        1.0  0.09752737815121246  0.5585435182696397  0.7579956581804039  1.0000
  O   O4        1.0  0.09886902298870365  0.7758856788129602  0.5620622134128287  1.0000
  O   O5        1.0  0.09627782503023669  0.3565390962591694  0.5764099423530509  1.0000
  O   O6        1.0  0.9579498846095491  0.7774601671633585  0.5616378719720774  1.0000
  O   O7        1.0  0.9566082504876808  0.5601197393562902  0.7575712452876341  1.0000
  O   O8        1.0  0.9567004052415429  0.5754574166061439  0.38005062139810347  1.0000
  O   O9        1.0  0.955358697044959  0.35811525677263756  0.575984065967904  1.0000
