data_image0
_chemical_formula_structural       NC9NC3OH6C6SCH6C9H8Zn2C4O8
_chemical_formula_sum              "N2 C32 O9 H20 S1 Zn2"
_cell_length_a       15.78231758774541
_cell_length_b       10.302809429070853
_cell_length_c       9.275155815604963
_cell_angle_alpha    86.05280374454347
_cell_angle_beta     90.4446892459172
_cell_angle_gamma    89.63144148246117

_space_group_name_H-M_alt    "P 1"
_space_group_IT_number       1

loop_
  _space_group_symop_operation_xyz
  'x, y, z'

loop_
  _atom_site_type_symbol
  _atom_site_label
  _atom_site_symmetry_multiplicity
  _atom_site_fract_x
  _atom_site_fract_y
  _atom_site_fract_z
  _atom_site_occupancy
  N   N1        1.0  0.7920364934790668  0.40059597747567144  0.4129208863368703  1.0000
  C   C1        1.0  0.7436034522366836  0.3187635358738785  0.43964399383287645  1.0000
  C   C2        1.0  0.6834720046048299  0.2171895876738028  0.4728142547011629  1.0000
  C   C3        1.0  0.7032886266748929  0.08959566027941566  0.5143933203266731  1.0000
  C   C4        1.0  0.6266330016345042  0.027759286749994734  0.534626898566994  1.0000
  C   C5        1.0  0.5647385136980231  0.1221937495475427  0.503899443337771  1.0000
  C   C6        1.0  0.4716689525089455  0.10473504657681222  0.5096823205449073  1.0000
  C   C7        1.0  0.4177941321106805  0.21178693336082444  0.47466574950885126  1.0000
  C   C8        1.0  0.3296052396058884  0.19747127681253307  0.4794155169806962  1.0000
  C   C9        1.0  0.2750301139991581  0.30763782315169075  0.443370968919917  1.0000
  N   N2        1.0  0.23116461975952132  0.396197501964275  0.4143943737700284  1.0000
  C   C10       1.0  0.2946100816194395  0.07594441916621598  0.5192362276950353  1.0000
  C   C11       1.0  0.3475537190998382  0.9691138964639328  0.5541852383742858  1.0000
  C   C12       1.0  0.43555742748950826  0.9830362680710354  0.5495645431097609  1.0000
  O   O1        1.0  0.6010616298040521  0.23411002855036503  0.4673752565788045  1.0000
  H   H1        1.0  0.7658007723021497  0.04656597510833781  0.5283588409006184  1.0000
  H   H2        1.0  0.6180236641865897  0.926083148746896  0.5677770611196371  1.0000
  H   H3        1.0  0.44428478860474174  0.3063563366542008  0.44367293584872586  1.0000
  H   H4        1.0  0.22650868268987098  0.06381978382563203  0.523256678316822  1.0000
  H   H5        1.0  0.3203319637163053  0.8751910223184974  0.5849666391736561  1.0000
  H   H6        1.0  0.4747464421468012  0.8984190413808519  0.5772557763722572  1.0000
  C   C13       1.0  0.011604641401374618  0.017143337321092307  0.4136638958759007  1.0000
  C   C14       1.0  0.06002006144605662  0.023339142398930868  0.2870105093457149  1.0000
  C   C15       1.0  0.08387685681043666  0.9094440146783388  0.22382777024331646  1.0000
  C   C16       1.0  0.060019954321355956  0.7881879849507563  0.2870104315308071  1.0000
  C   C17       1.0  0.011604607600472994  0.7796401989700692  0.41366388819642985  1.0000
  C   C18       1.0  0.9876114600415461  0.8947438681363041  0.4763442574319159  1.0000
  S   S1        1.0  0.1458916468622964  0.9188504170748826  0.062178273142840856  1.0000
  C   C19       1.0  0.05363325803777716  0.9271502208253027  0.9429279685059866  1.0000
  H   H7        1.0  0.07925013351153232  0.11636692689807604  0.2367018211556926  1.0000
  H   H8        1.0  0.07924994611540126  0.701016534416258  0.23670170821666714  1.0000
  H   H9        1.0  0.9502526127844797  0.8890587637763052  0.5740227981868362  1.0000
  H   H10       1.0  0.014819577706673739  0.8382328418020255  0.9620160841860553  1.0000
  H   H11       1.0  0.014820369311984383  0.014467791476445498  0.9620155629332331  1.0000
  H   H12       1.0  0.07509422216541095  0.9339934028986727  0.8290823380404984  1.0000
  C   C20       1.0  0.010052107749505714  0.395125653686473  0.9904274220832261  1.0000
  C   C21       1.0  0.9437658081050481  0.45905060001477116  0.05801986761470146  1.0000
  C   C22       1.0  0.88315498637788  0.531547175597741  0.9765317159059363  1.0000
  C   C23       1.0  0.8877064364594013  0.5416354404779762  0.8259651897153795  1.0000
  C   C24       1.0  0.9522876049731647  0.477030025770721  0.7566586579846346  1.0000
  C   C25       1.0  0.013157118297059345  0.40165782925904026  0.8369002657595717  1.0000
  C   C26       1.0  0.8253828218996856  0.617182346094773  0.7421586721829025  1.0000
  C   C27       1.0  0.7731980221611021  0.6804425354102634  0.6719555180747898  1.0000
  C   C28       1.0  0.7098811514547986  0.7571980734545076  0.5867643858701652  1.0000
  H   H13       1.0  0.20672675869924273  0.28840755510077454  0.10404520973443487  1.0000
  H   H14       1.0  0.9399589946648885  0.4554898438771937  0.17479863247429983  1.0000
  H   H15       1.0  0.8331522819379145  0.5808456223212475  0.031176960685979086  1.0000
  H   H16       1.0  0.9538531914981887  0.48311931465162977  0.6395176148197121  1.0000
  H   H17       1.0  0.14438613549579082  0.3251583803403557  0.5637582164123338  1.0000
  H   H18       1.0  0.7270996746320018  0.7607558381106688  0.470823173445818  1.0000
  H   H19       1.0  0.6467732735822209  0.7115982055935708  0.6015789157428588  1.0000
  H   H20       1.0  0.7077367223245977  0.8574687155626683  0.6232619089606732  1.0000
  Zn  Zn1       1.0  0.9187594118942028  0.39932326870450385  0.4133544190972376  1.0000
  Zn  Zn2       1.0  0.10444171607024993  0.3974597053951053  0.4139726228127778  1.0000
  C   C29       1.0  0.012568327615847252  0.39525104735854216  0.6768988025046241  1.0000
  C   C30       1.0  0.0106348285124127  0.40153354560596966  0.1504283876160295  1.0000
  C   C31       1.0  0.011579180453043842  0.635467772612057  0.4079205190092319  1.0000
  C   C32       1.0  0.011623912596767651  0.1613152617513025  0.41940674774039555  1.0000
  O   O2        1.0  0.08129586166730512  0.40297121608159814  0.2043607783644057  1.0000
  O   O3        1.0  0.08283586541267657  0.3923979928235357  0.6234351991844744  1.0000
  O   O4        1.0  0.08203617215830578  0.5863760575193255  0.40623332903322273  1.0000
  O   O5        1.0  0.0820954911644809  0.2089931604751916  0.4215625402400296  1.0000
  O   O6        1.0  0.9411055734356866  0.5877898142617151  0.40576450145144216  1.0000
  O   O7        1.0  0.9419052664042207  0.3938133088043754  0.6229662947551757  1.0000
  O   O8        1.0  0.9403652563589034  0.4043864734475149  0.2038901411205667  1.0000
  O   O9        1.0  0.9411648862489893  0.2104084093890229  0.421092011053275  1.0000
