data_image0
_chemical_formula_structural       NC9NC3SH6C7NC2NH8C6SCNH5Zn2C4O8
_chemical_formula_sum              "N5 C32 S2 H19 Zn2 O8"
_cell_length_a       16.77567553997237
_cell_length_b       9.273995741505848
_cell_length_c       10.302218930750287
_cell_angle_alpha    85.6945973122959
_cell_angle_beta     90.41546648822373
_cell_angle_gamma    91.47570659476311

_space_group_name_H-M_alt    "P 1"
_space_group_IT_number       1

loop_
  _space_group_symop_operation_xyz
  'x, y, z'

loop_
  _atom_site_type_symbol
  _atom_site_label
  _atom_site_symmetry_multiplicity
  _atom_site_fract_x
  _atom_site_fract_y
  _atom_site_fract_z
  _atom_site_occupancy
  N   N1        1.0  0.7594278031139917  0.5993482871010558  0.5785837505458471  1.0000
  C   C1        1.0  0.7049971254028776  0.6541292631069306  0.6203071926371433  1.0000
  C   C2        1.0  0.6374478338684156  0.722108832477633  0.672082793379885  1.0000
  C   C3        1.0  0.6401554767239639  0.8199348404443653  0.7673533327498765  1.0000
  C   C4        1.0  0.5647976853053831  0.8682145182351995  0.7989753972011264  1.0000
  C   C5        1.0  0.5024399907059011  0.8081961931563122  0.7282310475696301  1.0000
  C   C6        1.0  0.4161151301293313  0.8371434733060286  0.7391500735364145  1.0000
  C   C7        1.0  0.35878669966891036  0.7487558813878772  0.6806615678050048  1.0000
  C   C8        1.0  0.2772987012322916  0.775470382994657  0.6905187900551999  1.0000
  C   C9        1.0  0.2192857623686106  0.6841191025687314  0.630628061186791  1.0000
  N   N2        1.0  0.17266045875153446  0.6106857640155545  0.5824847630529549  1.0000
  C   C10       1.0  0.2523112388519589  0.8909207180524863  0.7587042807375419  1.0000
  C   C11       1.0  0.30854891574117665  0.9794847249844765  0.8167317179126322  1.0000
  C   C12       1.0  0.3898816007143613  0.9531736328207012  0.8071700058602351  1.0000
  S   S1        1.0  0.5423627759759929  0.6948237536504764  0.6268679350196533  1.0000
  H   H1        1.0  0.6947680609415221  0.8553166368092784  0.8131976644869169  1.0000
  H   H2        1.0  0.5569742544737962  0.9436204389628793  0.8726259985240015  1.0000
  H   H3        1.0  0.3770627326286841  0.658468260897281  0.6280051229323633  1.0000
  H   H4        1.0  0.18945086142692752  0.9125316612483451  0.7668430401782667  1.0000
  H   H5        1.0  0.2890883277548678  0.06909318918819052  0.8690691048425702  1.0000
  H   H6        1.0  0.4317370184038783  0.024961651358835525  0.8520935649290606  1.0000
  C   C13       1.0  0.9636630820729873  0.18146287978529838  0.5795633332963963  1.0000
  C   C14       1.0  0.9776416751224656  0.2651015957949021  0.46227890873652794  1.0000
  C   C15       1.0  0.9987560156513035  0.20058464507878132  0.3499317113974467  1.0000
  C   C16       1.0  0.006772797444525744  0.05035825340888267  0.35166243514668105  1.0000
  C   C17       1.0  0.9911196527124739  0.9653961712343354  0.46785549684912864  1.0000
  C   C18       1.0  0.9684327505225562  0.028560253793753262  0.5815164606330501  1.0000
  C   C19       1.0  0.030122013236731474  0.984020997540365  0.23123085874477645  1.0000
  N   N3        1.0  0.03300512823577307  0.05840370128812622  0.1132802501792396  1.0000
  C   C20       1.0  0.056907352972621617  0.961185187748114  0.03184873700654033  1.0000
  C   C21       1.0  0.06829734011258837  0.830572107255958  0.10088189971398687  1.0000
  N   N4        1.0  0.05148632771536055  0.8450894470577742  0.22625793751419088  1.0000
  H   H7        1.0  0.8990342179159131  0.4442612457671591  0.7658134552169291  1.0000
  H   H8        1.0  0.9741714324847407  0.3818509403486894  0.4580585969220858  1.0000
  H   H9        1.0  0.00999360731237431  0.2691071437817376  0.2618386189457553  1.0000
  H   H10       1.0  0.9938199934946665  0.8489078652553766  0.46968026675095254  1.0000
  H   H11       1.0  0.969515411203398  0.7305243294016015  0.7974377225596995  1.0000
  H   H12       1.0  0.06571034236517947  0.984465053861741  0.9284166076949235  1.0000
  H   H13       1.0  0.0878737250696  0.7320039320535192  0.06257772508616521  1.0000
  H   H14       1.0  0.055833690794899304  0.7646557259866897  0.3021922504250081  1.0000
  C   C22       1.0  0.9659739520109866  0.6050771102323544  0.19926419615259716  1.0000
  C   C23       1.0  0.040694034029799875  0.5399328047345782  0.2035968860707333  1.0000
  C   C24       1.0  0.07783666138146117  0.5070626164108094  0.088774202884218  1.0000
  C   C25       1.0  0.040887448780170935  0.5397595042920551  0.9684440627434001  1.0000
  C   C26       1.0  0.9661218650792259  0.604946061982734  0.9618156189555943  1.0000
  C   C27       1.0  0.9290618322022938  0.6371938186220565  0.07779714771305211  1.0000
  S   S2        1.0  0.17335743478453103  0.4244700075594135  0.09574600260946742  1.0000
  C   C28       1.0  0.13066648291941818  0.24807200274538377  0.10721102817416672  1.0000
  N   N5        1.0  0.10265487748204305  0.13243422287724727  0.11472710191635316  1.0000
  H   H15       1.0  0.9375487694483424  0.629937181218432  0.5249456541397071  1.0000
  H   H16       1.0  0.07030232806931735  0.5142070969095103  0.29588845211268405  1.0000
  H   H17       1.0  0.07062831422766824  0.5139149418597604  0.8804693838102997  1.0000
  H   H18       1.0  0.8714327876604615  0.6874158114883382  0.07360880909103429  1.0000
  H   H19       1.0  0.8252354895445725  0.7279559715564016  0.7420949944667967  1.0000
  Zn  Zn1       1.0  0.8786778038614401  0.6026161858559715  0.5797169953496122  1.0000
  Zn  Zn2       1.0  0.05341038885636773  0.607406097176401  0.5813621536281579  1.0000
  C   C29       1.0  0.9660597846345238  0.5992248272258788  0.8176638099179222  1.0000
  C   C30       1.0  0.9660303264293976  0.6107993279667099  0.34341548865631455  1.0000
  C   C31       1.0  0.9675260727302618  0.8684416374509384  0.575973353086715  1.0000
  C   C32       1.0  0.9645639689658224  0.3415807831989457  0.5851060101523131  1.0000
  O   O1        1.0  0.03235931614792564  0.6145312104340701  0.3924182937432445  1.0000
  O   O2        1.0  0.03234877769120903  0.5991272885888754  0.7699092656345434  1.0000
  O   O3        1.0  0.033531930242219676  0.8165232428207884  0.5747425067848071  1.0000
  O   O4        1.0  0.031176104011730432  0.39713526490227835  0.5875849547045191  1.0000
  O   O5        1.0  0.9009120290784292  0.812887016497104  0.5734941937050131  1.0000
  O   O6        1.0  0.8997288862676073  0.5954927951749042  0.7686608873217203  1.0000
  O   O7        1.0  0.8997394241915284  0.6108966670278132  0.39116835429592983  1.0000
  O   O8        1.0  0.8985562120128693  0.39350071116290997  0.5863351125774297  1.0000
