data_image0
_chemical_formula_structural       NC5OC5NC4H8C6BrH5C6BrH4Zn2C4O8
_chemical_formula_sum              "N2 C30 O9 H17 Br2 Zn2"
_cell_length_a       19.189071930511275
_cell_length_b       9.276564384272257
_cell_length_c       9.27656775626242
_cell_angle_alpha    86.06955747846486
_cell_angle_beta     90.16432666077901
_cell_angle_gamma    90.57707898574843

_space_group_name_H-M_alt    "P 1"
_space_group_IT_number       1

loop_
  _space_group_symop_operation_xyz
  'x, y, z'

loop_
  _atom_site_type_symbol
  _atom_site_label
  _atom_site_symmetry_multiplicity
  _atom_site_fract_x
  _atom_site_fract_y
  _atom_site_fract_z
  _atom_site_occupancy
  N   N1        1.0  0.6614399636296733  0.5624732728035708  0.4088086906713746  1.0000
  C   C1        1.0  0.6072032585156572  0.6134846653056725  0.388470993440881  1.0000
  C   C2        1.0  0.5397397824821065  0.6769343338368685  0.3631739550255988  1.0000
  C   C3        1.0  0.530393663284559  0.7834579229230594  0.2505610543441614  1.0000
  C   C4        1.0  0.4648608040862143  0.8451736336256467  0.22612751145136345  1.0000
  C   C5        1.0  0.4080122852563452  0.8002360605674588  0.3128032921503576  1.0000
  O   O1        1.0  0.3433243055965556  0.8659597236919648  0.28585343679613007  1.0000
  C   C6        1.0  0.2780691943080695  0.8000194478837794  0.3121774853404027  1.0000
  C   C7        1.0  0.22178686559285007  0.8865042054378284  0.34567733093409037  1.0000
  C   C8        1.0  0.15572372178142443  0.8251147298431616  0.3710544121487256  1.0000
  C   C9        1.0  0.14527811317438086  0.6764264406552252  0.3617052558070626  1.0000
  C   C10       1.0  0.0772688605937012  0.613204828859532  0.3876616773884587  1.0000
  N   N2        1.0  0.022593421790962097  0.5623768542675585  0.4085299728725944  1.0000
  C   C11       1.0  0.20108206506376083  0.5895785344923745  0.3260783665448481  1.0000
  C   C12       1.0  0.2671366437798908  0.651012279821509  0.3007496614631017  1.0000
  C   C13       1.0  0.41784843309683584  0.694732354840949  0.4272109296231301  1.0000
  C   C14       1.0  0.48337246694249936  0.6330127533818448  0.45171257507191664  1.0000
  H   H1        1.0  0.5737093799615959  0.8188875208541113  0.18186238591008985  1.0000
  H   H2        1.0  0.4580965557159791  0.9276443969156082  0.13899526561218312  1.0000
  H   H3        1.0  0.22940216486547013  0.0015867830156310859  0.35287585445170544  1.0000
  H   H4        1.0  0.11285522312474693  0.8935202057412961  0.3977396443089485  1.0000
  H   H5        1.0  0.1934582568696703  0.4746489109442569  0.317132406000316  1.0000
  H   H6        1.0  0.3092910474622186  0.5828014577637262  0.2702767162869957  1.0000
  H   H7        1.0  0.3752580288498241  0.6617471694199784  0.4986293946600046  1.0000
  H   H8        1.0  0.4901509755001236  0.5517173844940271  0.5400548271765344  1.0000
  C   C15       1.0  0.8399210474266892  0.1389482865801963  0.40903939929602395  1.0000
  C   C16       1.0  0.8307771180641734  0.22116017307071978  0.27735380053138753  1.0000
  C   C17       1.0  0.8281206874461178  0.1548942184696469  0.1468932698876484  1.0000
  C   C18       1.0  0.8345886882291242  0.005473116964326723  0.1456411377687239  1.0000
  C   C19       1.0  0.8425017162355529  0.9215487252983758  0.2753362712119414  1.0000
  C   C20       1.0  0.8441189961726283  0.9858908728942627  0.4083116637887516  1.0000
  Br  Br1       1.0  0.831466105434636  0.9153628187430347  0.9666260923145383  1.0000
  H   H9        1.0  0.81986554132383  0.40380039562418446  0.6433082623704427  1.0000
  H   H10       1.0  0.8273340849516222  0.337793324286249  0.27488970661045786  1.0000
  H   H11       1.0  0.8216957621327886  0.2201331480473565  0.0465322928910894  1.0000
  H   H12       1.0  0.8457210352692128  0.8052774574899216  0.2722272670944068  1.0000
  H   H13       1.0  0.8829256070369979  0.6901458354343903  0.6326950845325037  1.0000
  C   C21       1.0  0.8413342937064328  0.5582755559551952  0.9855528776425038  1.0000
  C   C22       1.0  0.7795794488971822  0.5930082978454492  0.056181680082520113  1.0000
  C   C23       1.0  0.7209802049790784  0.6396188553905449  0.9774860588808675  1.0000
  C   C24       1.0  0.7230354736809664  0.6524407111178365  0.8269776611004862  1.0000
  C   C25       1.0  0.7834163996297745  0.6161505409011874  0.7546241891376098  1.0000
  C   C26       1.0  0.8427057702853793  0.5665636794342881  0.8317982522887184  1.0000
  Br  Br2       1.0  0.6428374996453786  0.7173943127630222  0.7197337871573994  1.0000
  H   H14       1.0  0.936553378094036  0.4272673926381109  0.27642561799559373  1.0000
  H   H15       1.0  0.6741344701789883  0.6671261285742689  0.03381608192823959  1.0000
  H   H16       1.0  0.7833432336472214  0.623516871962134  0.6375674815414363  1.0000
  H   H17       1.0  0.9572949789080208  0.5516421395450759  0.552327821374166  1.0000
  Zn  Zn1       1.0  0.7656610534971082  0.5624416828596579  0.4087365765608353  1.0000
  Zn  Zn2       1.0  0.9183723101407445  0.5623968067054732  0.4086138779960693  1.0000
  C   C27       1.0  0.8424164819780977  0.55925209048915  0.6718446779289051  1.0000
  C   C28       1.0  0.8416185585098515  0.5655882195148519  0.14550591514677302  1.0000
  C   C29       1.0  0.8433125997704985  0.8257444850879168  0.4027074933489243  1.0000
  C   C30       1.0  0.8407223801445844  0.29909409310410995  0.4146431780763895  1.0000
  O   O2        1.0  0.8996670552260911  0.5680190946301586  0.19914105766181955  1.0000
  O   O3        1.0  0.9002722894919747  0.5567860634526727  0.6181159962008018  1.0000
  O   O4        1.0  0.9009951371345095  0.7719820572506031  0.40078581480162256  1.0000
  O   O5        1.0  0.8989441553495948  0.35282311010542644  0.41647113105837663  1.0000
  O   O6        1.0  0.7850891561753963  0.7720153794765141  0.4008793235328192  1.0000
  O   O7        1.0  0.7843663169928662  0.5568211175073687  0.6182094266166538  1.0000
  O   O8        1.0  0.7837610797167462  0.5680540814655257  0.19923275577185962  1.0000
  O   O9        1.0  0.7830381799613501  0.3528580876844046  0.4165629372053301  1.0000
