data_image0
_chemical_formula_structural       NC9NC3SH6C7OCH9C7NC2NH8Zn2C4O8
_chemical_formula_sum              "N4 C33 S1 H23 O9 Zn2"
_cell_length_a       16.77567553997237
_cell_length_b       10.30083208314754
_cell_length_c       9.27399911348925
_cell_angle_alpha    85.04366218099177
_cell_angle_beta     90.06803896743476
_cell_angle_gamma    90.88775763152196

_space_group_name_H-M_alt    "P 1"
_space_group_IT_number       1

loop_
  _space_group_symop_operation_xyz
  'x, y, z'

loop_
  _atom_site_type_symbol
  _atom_site_label
  _atom_site_symmetry_multiplicity
  _atom_site_fract_x
  _atom_site_fract_y
  _atom_site_fract_z
  _atom_site_occupancy
  N   N1        1.0  0.755763651341299  0.45226498901600914  0.4152603483558439  1.0000
  C   C1        1.0  0.7008634036306044  0.5012259256233751  0.4614822245402969  1.0000
  C   C2        1.0  0.632731408417678  0.5619832146334882  0.5188400363151033  1.0000
  C   C3        1.0  0.634521496027034  0.6492363802802544  0.6244614473648935  1.0000
  C   C4        1.0  0.5587694601122425  0.6924312795649687  0.6594732090578168  1.0000
  C   C5        1.0  0.49702149076444563  0.6390059706942316  0.5810059978963014  1.0000
  C   C6        1.0  0.4104908511800756  0.6649741060292935  0.5930597974064284  1.0000
  C   C7        1.0  0.3538864511137368  0.5859005892261961  0.5282990238786291  1.0000
  C   C8        1.0  0.2722093816151148  0.6098676348340617  0.5391789783638374  1.0000
  C   C9        1.0  0.2149426232376664  0.5281379007017272  0.4728680632055049  1.0000
  N   N2        1.0  0.1689171407917975  0.46243890427689416  0.41956388494855945  1.0000
  C   C10       1.0  0.24630745191616218  0.7132231216566066  0.614640569380029  1.0000
  C   C11       1.0  0.3018218522130873  0.7924594618706329  0.6788882917959154  1.0000
  C   C12       1.0  0.3833401950041546  0.7688530682759176  0.6683356632783908  1.0000
  S   S1        1.0  0.5379732161912827  0.5378083294380636  0.4686570754284077  1.0000
  H   H1        1.0  0.6887588842763653  0.6806956748923435  0.6753206178286768  1.0000
  H   H2        1.0  0.5502379461502409  0.7596856214089956  0.7411263777103739  1.0000
  H   H3        1.0  0.37287509923822665  0.5050659344976645  0.4700268757424985  1.0000
  H   H4        1.0  0.18329349704220996  0.7326100603661552  0.6236250597069022  1.0000
  H   H5        1.0  0.2816537163028688  0.87268540046591  0.7368077389988112  1.0000
  H   H6        1.0  0.4246173789368636  0.8330985597052586  0.7180654600037171  1.0000
  C   C13       1.0  0.962365974163609  0.07601466108168277  0.4175638568603621  1.0000
  C   C14       1.0  0.9406505631716021  0.0860420752460511  0.270778730153842  1.0000
  C   C15       1.0  0.9287843456938598  0.9739176677957367  0.19729269442829822  1.0000
  C   C16       1.0  0.9405942531164949  0.8507847388833898  0.27039678783604404  1.0000
  C   C17       1.0  0.9623224318837331  0.8386793499851455  0.4172730035119751  1.0000
  C   C18       1.0  0.9728935907474767  0.9518301877728622  0.4900755055988022  1.0000
  C   C19       1.0  0.9078384892613373  0.9859085963027648  0.03919739161390568  1.0000
  O   O1        1.0  0.97891340647445  0.994220230154109  0.9574260590025653  1.0000
  C   C20       1.0  0.9600539852730855  0.005546251390237345  0.8087339684292849  1.0000
  H   H7        1.0  0.9328930163758066  0.18098784069944476  0.21299704575902045  1.0000
  H   H8        1.0  0.9327973249848717  0.7645841698228909  0.21235289252008435  1.0000
  H   H9        1.0  0.9896482423863578  0.9433339567813733  0.6032783824500576  1.0000
  H   H10       1.0  0.0041867978155916115  0.6086489010871582  0.6939128266982197  1.0000
  H   H11       1.0  0.8712128797583109  0.0744667268620598  0.01468664873075287  1.0000
  H   H12       1.0  0.8712459608764211  0.8993806654054867  0.014356035508781066  1.0000
  H   H13       1.0  0.016421115608556525  0.011968524358349823  0.7459242358300835  1.0000
  H   H14       1.0  0.9261951412230877  0.09585616397111087  0.778282055082522  1.0000
  H   H15       1.0  0.926210156562851  0.918377318096961  0.7779245419234511  1.0000
  C   C21       1.0  0.9637208435661813  0.4607043998319214  0.9935801034343635  1.0000
  C   C22       1.0  0.026304359294063717  0.4000641986090133  0.07274020506897694  1.0000
  C   C23       1.0  0.08361129969578918  0.3300491654498263  0.004712170506121266  1.0000
  C   C24       1.0  0.07987498776303024  0.31824615334394757  0.8553813165969397  1.0000
  C   C25       1.0  0.01849115844554516  0.3811088790106758  0.7746742322779223  1.0000
  C   C26       1.0  0.9609675360789552  0.45398961687241435  0.8412566863229243  1.0000
  C   C27       1.0  0.14106096410260394  0.24208816143026196  0.7853526783504949  1.0000
  N   N3        1.0  0.20782234586055637  0.1983593705675577  0.8541041883693072  1.0000
  C   C28       1.0  0.24641844896656792  0.13433414936046773  0.7552079657706496  1.0000
  C   C29       1.0  0.2028718374950289  0.13973359352821513  0.6292098246139113  1.0000
  N   N4        1.0  0.13660953529563002  0.20744210163337073  0.648326266590383  1.0000
  H   H16       1.0  0.8788503672951518  0.6225224660110015  0.2592108217861777  1.0000
  H   H17       1.0  0.02991541825823085  0.40401748245172464  0.18892749970809275  1.0000
  H   H18       1.0  0.13036562795148243  0.28336205462057507  0.06994512540167519  1.0000
  H   H19       1.0  0.016519373381304048  0.377546667839229  0.6585500352834055  1.0000
  H   H20       1.0  0.8365780700019302  0.5242180934431374  0.5541709424335712  1.0000
  H   H21       1.0  0.3028159654692177  0.08629866278554021  0.7741826897749933  1.0000
  H   H22       1.0  0.21817648528815026  0.0967493292330679  0.5306930797104434  1.0000
  H   H23       1.0  0.09150798159369833  0.2260145986869957  0.5721435721566577  1.0000
  Zn  Zn1       1.0  0.8749907997614892  0.4551974280383184  0.41651060099836035  1.0000
  Zn  Zn2       1.0  0.049689949513104015  0.4594957778894356  0.418325489132771  1.0000
  C   C30       1.0  0.9614864864737961  0.4500855576993757  0.6810296504947064  1.0000
  C   C31       1.0  0.9631961699563558  0.4646093325279712  0.15380660049119554  1.0000
  C   C32       1.0  0.9623452190929984  0.694564949813852  0.41157643508332153  1.0000
  C   C33       1.0  0.9623373775637353  0.2201283781638415  0.4232598928274091  1.0000
  O   O2        1.0  0.02931750190204796  0.4675453997079478  0.208268819339972  1.0000
  O   O3        1.0  0.027957768331875913  0.45041086224913873  0.6279444746422485  1.0000
  O   O4        1.0  0.028650307186585126  0.6478310293679896  0.4103590869716809  1.0000
  O   O5        1.0  0.028624903785321894  0.2701252412690547  0.42585409816934766  1.0000
  O   O6        1.0  0.89605578587305  0.6445679631933572  0.40898199133485913  1.0000
  O   O7        1.0  0.8953632471755372  0.4471493568588172  0.6265673014536737  1.0000
  O   O8        1.0  0.8967229864376107  0.4642838628125533  0.20688991089030281  1.0000
  O   O9        1.0  0.8960303879666799  0.26686369422835965  0.4244752979339461  1.0000
