data_image0
_chemical_formula_structural       NC9NC3SH6C8NH6C9H10Zn2C4O8
_chemical_formula_sum              "N3 C33 S1 H22 Zn2 O8"
_cell_length_a       16.77567553997237
_cell_length_b       9.274263428431858
_cell_length_c       9.272679976505533
_cell_angle_alpha    85.97590121954681
_cell_angle_beta     90.7858477527611
_cell_angle_gamma    91.51050711931723

_space_group_name_H-M_alt    "P 1"
_space_group_IT_number       1

loop_
  _space_group_symop_operation_xyz
  'x, y, z'

loop_
  _atom_site_type_symbol
  _atom_site_label
  _atom_site_symmetry_multiplicity
  _atom_site_fract_x
  _atom_site_fract_y
  _atom_site_fract_z
  _atom_site_occupancy
  N   N1        1.0  0.7541041842785416  0.5865671327901949  0.41649852232671636  1.0000
  C   C1        1.0  0.6998617938003521  0.6417442214906012  0.4626534799368714  1.0000
  C   C2        1.0  0.6325461525009445  0.7102153365384785  0.5199282507081155  1.0000
  C   C3        1.0  0.6356751463566898  0.8089402091177834  0.6254050540084479  1.0000
  C   C4        1.0  0.5604621855081504  0.857521491381063  0.6603640662176282  1.0000
  C   C5        1.0  0.4977955849122187  0.7968383017088885  0.582000441377337  1.0000
  C   C6        1.0  0.4115245982517993  0.8258922524583436  0.5940323369622595  1.0000
  C   C7        1.0  0.35392857439294384  0.7369469972541638  0.5293688556363142  1.0000
  C   C8        1.0  0.272489394232322  0.7637579162885382  0.540228861244195  1.0000
  C   C9        1.0  0.21420218072360708  0.6718354290852933  0.47401782466277864  1.0000
  N   N2        1.0  0.1673564006841167  0.5979429245862944  0.4207939341478932  1.0000
  C   C10       1.0  0.24781779625534056  0.8798609258050359  0.615573300285728  1.0000
  C   C11       1.0  0.3043212319387271  0.9689783796845894  0.6797242350280162  1.0000
  C   C12       1.0  0.3856064370510704  0.942573678772602  0.6691910767968744  1.0000
  S   S1        1.0  0.537267149332711  0.6825076024245079  0.4698081665776854  1.0000
  H   H1        1.0  0.690486804961892  0.8447521335249953  0.676198153071963  1.0000
  H   H2        1.0  0.5529644183114938  0.9336222502015539  0.7419055094426873  1.0000
  H   H3        1.0  0.3719603242119482  0.64615511421857  0.47118751830342936  1.0000
  H   H4        1.0  0.18499758587830653  0.9015513855855474  0.6245414536577882  1.0000
  H   H5        1.0  0.285103405347906  0.059088023795495846  0.7375534613689296  1.0000
  H   H6        1.0  0.42766861405657364  0.014790827350493533  0.7188449737624809  1.0000
  C   C13       1.0  0.9582119410146608  0.16860473314360053  0.4189264407862676  1.0000
  C   C14       1.0  0.9473971696961965  0.25060778522650007  0.28705721005646617  1.0000
  C   C15       1.0  0.9444080600679438  0.1845647934650525  0.15646201276488947  1.0000
  C   C16       1.0  0.9528079875153762  0.03499782262401552  0.1545125401272858  1.0000
  C   C17       1.0  0.9614793364915492  0.951424061570618  0.28547575073911063  1.0000
  C   C18       1.0  0.963256261897461  0.015894605837838638  0.41837862573703166  1.0000
  C   C19       1.0  0.9483959995018406  0.9637579923156324  0.01380252587489594  1.0000
  C   C20       1.0  0.8655374256069098  0.922283227679306  0.980899971321064  1.0000
  N   N3        1.0  0.8001389568309063  0.8895468119827772  0.954940220562543  1.0000
  H   H7        1.0  0.02830719910785496  0.25147246540008594  0.7520359153728949  1.0000
  H   H8        1.0  0.9429800215814862  0.36708611394908314  0.2846500805952299  1.0000
  H   H9        1.0  0.9362841820978492  0.2504660403110335  0.05646774223930429  1.0000
  H   H10       1.0  0.007353303035054327  0.7214278688319774  0.64457266634858  1.0000
  H   H11       1.0  0.9852586096536644  0.8657022886320522  0.01976485268019413  1.0000
  H   H12       1.0  0.9715988149679133  0.03848860866501958  0.9243259770715824  1.0000
  C   C21       1.0  0.9590971291252449  0.588798489507943  0.9952752496342367  1.0000
  C   C22       1.0  0.012754831103222621  0.5010508302837277  0.0761624207752596  1.0000
  C   C23       1.0  0.0704088640514855  0.4251019332492083  0.008215616802288666  1.0000
  C   C24       1.0  0.07635521843831006  0.43440447993013054  0.8574086984953978  1.0000
  C   C25       1.0  0.021728741102287508  0.5201678215890484  0.7751285680942079  1.0000
  C   C26       1.0  0.9623710569934133  0.5957008261124483  0.8420298476444583  1.0000
  C   C27       1.0  0.1413893727054032  0.34930394127109055  0.7919980019000632  1.0000
  C   C28       1.0  0.12200957329613239  0.2827586897394858  0.649743466949763  1.0000
  C   C29       1.0  0.1788639641617833  0.41347919952923706  0.6524244423694898  1.0000
  H   H13       1.0  0.839616293330696  0.6830351117312198  0.2669151271256589  1.0000
  H   H14       1.0  0.011449186128361431  0.49373889765440526  0.19322860690890198  1.0000
  H   H15       1.0  0.11129110645179585  0.35956721768878785  0.07432019054888817  1.0000
  H   H16       1.0  0.02354953152778561  0.5264535906557017  0.6583641720045392  1.0000
  H   H17       1.0  0.7821494500023145  0.726437637300442  0.7253577124501849  1.0000
  H   H18       1.0  0.1826781889169813  0.2855526528748578  0.8646594163997143  1.0000
  H   H19       1.0  0.06292758813679145  0.3057472633195937  0.5994303116155941  1.0000
  H   H20       1.0  0.15236308172231783  0.1797518222995702  0.6358385469172274  1.0000
  H   H21       1.0  0.15435584276571612  0.5158082944269564  0.6036235776328036  1.0000
  H   H22       1.0  0.24245563249539748  0.38686354881970364  0.6400827089555636  1.0000
  Zn  Zn1       1.0  0.8733598593616753  0.5898461567464031  0.41774642242782  1.0000
  Zn  Zn2       1.0  0.04810069634838477  0.594652228218415  0.41955788154950524  1.0000
  C   C30       1.0  0.9617162273220666  0.5886487972968658  0.6819787528478973  1.0000
  C   C31       1.0  0.9597462479366733  0.5958514615933789  0.15532571124062433  1.0000
  C   C32       1.0  0.962276455303044  0.8556918027834131  0.4127368902881737  1.0000
  C   C33       1.0  0.9591859503069672  0.32880672180348214  0.42456765116829387  1.0000
  O   O1        1.0  0.026277297636002613  0.6000360886416498  0.2097275516003987  1.0000
  O   O2        1.0  0.02780942158381606  0.5881107755656374  0.6289513537251281  1.0000
  O   O3        1.0  0.028260924625661325  0.8037513673491327  0.4115366345402549  1.0000
  O   O4        1.0  0.025825734610421373  0.38439550465719485  0.427142162059837  1.0000
  O   O5        1.0  0.8956347614691473  0.8001028786690565  0.41016214129174133  1.0000
  O   O6        1.0  0.8951832684455393  0.5844640195503422  0.6275767824829226  1.0000
  O   O7        1.0  0.8936511375493777  0.596389268224687  0.2083512469999329  1.0000
  O   O8        1.0  0.893199574877041  0.38074867480262364  0.4257659655590601  1.0000
