data_image0
_chemical_formula_structural       NC9NC3OH6C6OCH8C6NCH7Zn2C4O8
_chemical_formula_sum              "N3 C30 O10 H21 Zn2"
_cell_length_a       15.78231758774541
_cell_length_b       9.273888216677433
_cell_length_c       9.273390368590327
_cell_angle_alpha    86.36751786552816
_cell_angle_beta     90.0787864382203
_cell_angle_gamma    89.05820199757645

_space_group_name_H-M_alt    "P 1"
_space_group_IT_number       1

loop_
  _space_group_symop_operation_xyz
  'x, y, z'

loop_
  _atom_site_type_symbol
  _atom_site_label
  _atom_site_symmetry_multiplicity
  _atom_site_fract_x
  _atom_site_fract_y
  _atom_site_fract_z
  _atom_site_occupancy
  N   N1        1.0  0.7888836323246087  0.5525547666333706  0.4182775407969017  1.0000
  C   C1        1.0  0.7408838435704298  0.46170822545733625  0.44468577064123843  1.0000
  C   C2        1.0  0.6812901661013226  0.3489455897421565  0.47746519182866737  1.0000
  C   C3        1.0  0.7017826511042788  0.2072966113533674  0.5185532946653857  1.0000
  C   C4        1.0  0.6254542593659026  0.13864885067128974  0.538548937969779  1.0000
  C   C5        1.0  0.5630593803484522  0.24348579310236862  0.5081848540803757  1.0000
  C   C6        1.0  0.47008194444347984  0.2241041269868675  0.5139005554512275  1.0000
  C   C7        1.0  0.41564056829201046  0.3429479953407615  0.4792959006364954  1.0000
  C   C8        1.0  0.3275271859275282  0.3270555782406168  0.4839905859990039  1.0000
  C   C9        1.0  0.2723690553249908  0.4493571733392832  0.4483699385391296  1.0000
  N   N2        1.0  0.22803490574984533  0.5476718615622926  0.4197341046979788  1.0000
  C   C10       1.0  0.2931749284517086  0.1921424343241012  0.5233436854353803  1.0000
  C   C11       1.0  0.34668393185935353  0.07354432371328402  0.5578816318020139  1.0000
  C   C12       1.0  0.4346142098902466  0.08900013562318333  0.5533145053701705  1.0000
  O   O1        1.0  0.5987898815138069  0.36773004792043495  0.47209130325137966  1.0000
  H   H1        1.0  0.7645229377222085  0.15952689455384417  0.5323532416653409  1.0000
  H   H2        1.0  0.6173834348558133  0.02577265876104629  0.571307866088892  1.0000
  H   H3        1.0  0.4416309542276714  0.447934287687757  0.4486669711576982  1.0000
  H   H4        1.0  0.2251374916934416  0.1786823578800456  0.5273174842348747  1.0000
  H   H5        1.0  0.3199590251276708  0.9692757771418886  0.5883016361487283  1.0000
  H   H6        1.0  0.4742509991712156  0.9950621772388831  0.580680147285332  1.0000
  C   C13       1.0  0.010951584912434644  0.12660785071312342  0.41754149547623826  1.0000
  C   C14       1.0  0.9911840835071647  0.208722620049282  0.28873674238605895  1.0000
  C   C15       1.0  0.9642068725878307  0.1429902117597146  0.16556276911370715  1.0000
  C   C16       1.0  0.9568405243389955  0.9921463942530991  0.17073016360947113  1.0000
  C   C17       1.0  0.9774951777374521  0.9087972000202692  0.29676536392270325  1.0000
  C   C18       1.0  0.005975082587942538  0.9736077415757063  0.42048258813998873  1.0000
  O   O2        1.0  0.9449522868816038  0.23131140068008604  0.040997170014737794  1.0000
  C   C19       1.0  0.9166916270119324  0.1792917546094455  0.908262324305641  1.0000
  H   H7        1.0  0.017797959179666853  0.2069847807101859  0.7722566907143129  1.0000
  H   H8        1.0  0.9947636127085059  0.32551299855755095  0.28447642368001635  1.0000
  H   H9        1.0  0.9359397170666923  0.9379514330908713  0.07744309301396046  1.0000
  H   H10       1.0  0.97309201525953  0.7923726407511246  0.2962708209760154  1.0000
  H   H11       1.0  0.014137106953840744  0.6771139411471335  0.6584100427979671  1.0000
  H   H12       1.0  0.8558820700824492  0.1220203613408901  0.9246718331096471  1.0000
  H   H13       1.0  0.9653470687824877  0.10568327267452475  0.8652050274806196  1.0000
  H   H14       1.0  0.9063983284713043  0.2722449759448089  0.8285415292585316  1.0000
  C   C20       1.0  0.00852904190326931  0.5456100857431258  0.9957507817387133  1.0000
  C   C21       1.0  0.08637338439360609  0.5418792197304523  0.06960145260484629  1.0000
  C   C22       1.0  0.1627814711609299  0.5515699159884759  0.9944768988786215  1.0000
  C   C23       1.0  0.16328584253169287  0.5653605749984778  0.8428987606105864  1.0000
  C   C24       1.0  0.08597228278944041  0.5666535536212065  0.768231755579631  1.0000
  C   C25       1.0  0.008397664327598255  0.5546055343397556  0.842273288105548  1.0000
  N   N3        1.0  0.24111637708229716  0.5766958703428879  0.7624112399822023  1.0000
  C   C26       1.0  0.3247804916015238  0.5759355804496943  0.8296775250072606  1.0000
  H   H15       1.0  0.8751876074563693  0.47782182666516393  0.2809066172551731  1.0000
  H   H16       1.0  0.22117322161565578  0.549593701059395  0.05578694082495162  1.0000
  H   H17       1.0  0.8115767832546225  0.4447596245787706  0.7457381650365646  1.0000
  H   H18       1.0  0.23831078979501283  0.5862843435490036  0.649559475764685  1.0000
  H   H19       1.0  0.3297363819934109  0.6683880934860388  0.8994855397751235  1.0000
  H   H20       1.0  0.3357224193330526  0.47273177720719217  0.8949077860136812  1.0000
  H   H21       1.0  0.37437553773062016  0.5862860450310743  0.7449895232225119  1.0000
  Zn  Zn1       1.0  0.9156132213431372  0.5511419018252663  0.41870617690235523  1.0000
  Zn  Zn2       1.0  0.10130535556695713  0.5490730809934483  0.4193172102138749  1.0000
  C   C27       1.0  0.008454345701538902  0.5471598947118894  0.6822424593258728  1.0000
  C   C28       1.0  0.008466248247614326  0.5530568866855445  0.15578108224965592  1.0000
  C   C29       1.0  0.006912292500514946  0.8134457479773904  0.414182990586879  1.0000
  C   C30       1.0  0.010008248253292168  0.28676930224573827  0.42384062160790603  1.0000
  O   O3        1.0  0.07891440828501661  0.5547647026491114  0.20972057510610156  1.0000
  O   O4        1.0  0.07894222537319175  0.5438807992274518  0.6287663079246897  1.0000
  O   O5        1.0  0.07769604772032429  0.7589100198930494  0.41230639243377465  1.0000
  O   O6        1.0  0.08016052252989692  0.33973549185774254  0.4261803823533244  1.0000
  O   O7        1.0  0.9367579910125771  0.7604794916684491  0.4118430045468142  1.0000
  O   O8        1.0  0.9380041584931703  0.5454520028846329  0.6283028492023812  1.0000
  O   O9        1.0  0.9379763420256139  0.5563358376349425  0.2092553832931454  1.0000
  O   O10       1.0  0.9392224563108605  0.3413066176768218  0.4257152985679695  1.0000
