data_image0
_chemical_formula_structural       NC9NC3OH6C6NCOH7C7H8Zn2C4O8
_chemical_formula_sum              "N3 C30 O10 H21 Zn2"
_cell_length_a       15.78231758774541
_cell_length_b       10.299619329790078
_cell_length_c       9.274345330872306
_cell_angle_alpha    85.12981543555203
_cell_angle_beta     89.64000707228584
_cell_angle_gamma    89.65730562172187

_space_group_name_H-M_alt    "P 1"
_space_group_IT_number       1

loop_
  _space_group_symop_operation_xyz
  'x, y, z'

loop_
  _atom_site_type_symbol
  _atom_site_label
  _atom_site_symmetry_multiplicity
  _atom_site_fract_x
  _atom_site_fract_y
  _atom_site_fract_z
  _atom_site_occupancy
  N   N1        1.0  0.8054649035018208  0.4241419472357948  0.41098768365835775  1.0000
  C   C1        1.0  0.7567886131258822  0.34189567878552096  0.43773658674592975  1.0000
  C   C2        1.0  0.6963552310042088  0.2398080652112857  0.4709388667273043  1.0000
  C   C3        1.0  0.7157932972634373  0.11157017540823193  0.5125580370731928  1.0000
  C   C4        1.0  0.6389535309028862  0.049420506974294794  0.5328111609518609  1.0000
  C   C5        1.0  0.5773388419746734  0.1443309081418185  0.5020540841724956  1.0000
  C   C6        1.0  0.4842167152264861  0.12678272755485054  0.5078425725164584  1.0000
  C   C7        1.0  0.43066058373149785  0.23437681874736316  0.47279217973972854  1.0000
  C   C8        1.0  0.342428523571869  0.21998767690842105  0.4775465587096129  1.0000
  C   C9        1.0  0.2881814343232448  0.3307123367216904  0.4414671927546013  1.0000
  N   N2        1.0  0.24457965070866985  0.4197206875809347  0.4124626066218336  1.0000
  C   C10       1.0  0.3070710162150093  0.09784428971150702  0.5174057559811233  1.0000
  C   C11       1.0  0.3596965840264158  0.9904726131376342  0.5523885248647447  1.0000
  C   C12       1.0  0.44774228575942104  0.004466471843476578  0.5477633429223364  1.0000
  O   O1        1.0  0.6139944430746406  0.2568128119190556  0.46549464911337696  1.0000
  H   H1        1.0  0.7781782429819827  0.06832414526480068  0.5265370078322007  1.0000
  H   H2        1.0  0.6300423937245238  0.9472309660312442  0.5659933042274805  1.0000
  H   H3        1.0  0.4574332552482637  0.3294260677002716  0.44176940979020607  1.0000
  H   H4        1.0  0.23893307583883852  0.08565745047123573  0.5214301091895786  1.0000
  H   H5        1.0  0.33219473776685465  0.8960731669569658  0.5831996777779265  1.0000
  H   H6        1.0  0.4866792917718837  0.9194204797739142  0.5754813271576189  1.0000
  C   C13       1.0  0.024914108307518824  0.04056418760511705  0.4116872030394654  1.0000
  C   C14       1.0  0.9846573442048268  0.049991612454256096  0.27648171169539837  1.0000
  C   C15       1.0  0.965641429817764  0.9380076245270603  0.20736074078719757  1.0000
  C   C16       1.0  0.9849091757078843  0.8148298541491346  0.27659365615187226  1.0000
  C   C17       1.0  0.02513843982222296  0.8032883381603136  0.4117756055113968  1.0000
  C   C18       1.0  0.04521477849053368  0.9167824165485945  0.4782864388210371  1.0000
  N   N3        1.0  0.9232662018561393  0.9514580793963603  0.07001260962019364  1.0000
  C   C19       1.0  0.9371025578521093  0.8674227579543113  0.9565051964233495  1.0000
  O   O2        1.0  0.9965599853643766  0.7850579035629072  0.9627719632267038  1.0000
  H   H7        1.0  0.10004239366590427  0.22998614940955053  0.6674363303414174  1.0000
  H   H8        1.0  0.9684770723809498  0.1446211359563807  0.22353267254684517  1.0000
  H   H9        1.0  0.9670167721773739  0.7279605530335278  0.2266123886049236  1.0000
  H   H10       1.0  0.07625826735761221  0.9086393432717494  0.5825067756025164  1.0000
  H   H11       1.0  0.03943882214443618  0.4713440899561769  0.46468163326361706  1.0000
  H   H12       1.0  0.8841523652105748  0.03261446753841257  0.04650783361853671  1.0000
  H   H13       1.0  0.8973078360332527  0.8773468778799448  0.8616012739897778  1.0000
  C   C20       1.0  0.026943931521278934  0.42482699162876286  0.98793570896654  1.0000
  C   C21       1.0  0.976520324850314  0.5168112946566072  0.05303642916573548  1.0000
  C   C22       1.0  0.9210280060895237  0.5984026514712596  0.9708257296229599  1.0000
  C   C23       1.0  0.9139989121988047  0.5889197519159448  0.8218568145693024  1.0000
  C   C24       1.0  0.965737401868446  0.5005736512980992  0.7547566442681952  1.0000
  C   C25       1.0  0.023108621955065783  0.4190255137919129  0.8355270328749476  1.0000
  C   C26       1.0  0.855627878367889  0.678721947298482  0.7331422019330609  1.0000
  H   H14       1.0  0.12413311137798883  0.1409785491916984  0.11656610004785173  1.0000
  H   H15       1.0  0.9786798166299627  0.5237585161640309  0.16886147571005017  1.0000
  H   H16       1.0  0.8828020607378636  0.6681605821838318  0.023867516204594045  1.0000
  H   H17       1.0  0.9625288004090399  0.49764499798396944  0.6383534689383836  1.0000
  H   H18       1.0  0.0916279712064611  0.2305821911034842  0.5718401914704576  1.0000
  H   H19       1.0  0.8902568191226624  0.7685422459530852  0.6941448622751354  1.0000
  H   H20       1.0  0.8000321718849018  0.7057356680526959  0.7985334312142034  1.0000
  H   H21       1.0  0.8318096821869975  0.6309687069193891  0.6384550781983457  1.0000
  Zn  Zn1       1.0  0.9321838918000849  0.4228625412476794  0.4114216412679206  1.0000
  Zn  Zn2       1.0  0.11786057741768485  0.4209894134012431  0.4120404451541506  1.0000
  C   C27       1.0  0.023830185052299502  0.4149484729608764  0.6753135461571883  1.0000
  C   C28       1.0  0.026216311590175904  0.4289050988755927  0.14814868885897337  1.0000
  C   C29       1.0  0.02511772266725809  0.6591566184464458  0.4060079531223762  1.0000
  C   C30       1.0  0.024928709809613585  0.18469539320760078  0.41745435844318335  1.0000
  O   O3        1.0  0.09643544855748298  0.4295572409520468  0.20215246066797588  1.0000
  O   O4        1.0  0.09453535779431772  0.41287369331601825  0.6217790166302846  1.0000
  O   O5        1.0  0.09557410403194264  0.6100748585404486  0.4043128418636732  1.0000
  O   O6        1.0  0.09539663945334581  0.23235608639760977  0.41961852701704294  1.0000
  O   O7        1.0  0.9546477664021185  0.6114958688919847  0.4038435591862699  1.0000
  O   O8        1.0  0.953609020967792  0.414296264490649  0.6213096571847256  1.0000
  O   O9        1.0  0.9555091196252081  0.43097977874659593  0.20168136611300613  1.0000
  O   O10       1.0  0.9544703100252777  0.23377861416283818  0.41914754066085963  1.0000
