data_image0
_chemical_formula_structural       NC9NC3OH6C6NO2H4C12H10Zn2C4O8
_chemical_formula_sum              "N3 C34 O11 H20 Zn2"
_cell_length_a       15.78231758774541
_cell_length_b       9.273392599741051
_cell_length_c       10.299141136925906
_cell_angle_alpha    85.66774758485903
_cell_angle_beta     90.10591436666134
_cell_angle_gamma    89.0365174922554

_space_group_name_H-M_alt    "P 1"
_space_group_IT_number       1

loop_
  _space_group_symop_operation_xyz
  'x, y, z'

loop_
  _atom_site_type_symbol
  _atom_site_label
  _atom_site_symmetry_multiplicity
  _atom_site_fract_x
  _atom_site_fract_y
  _atom_site_fract_z
  _atom_site_occupancy
  N   N1        1.0  0.7879224775152447  0.5700778742818711  0.5728465840821995  1.0000
  C   C1        1.0  0.7399533357157829  0.4789283777429752  0.5967524209497157  1.0000
  C   C2        1.0  0.6803976987164294  0.3657896965364045  0.6264257257269961  1.0000
  C   C3        1.0  0.700937934787972  0.2236693067910902  0.6636207637101854  1.0000
  C   C4        1.0  0.6246327169046347  0.1547921782141417  0.6817214908804639  1.0000
  C   C5        1.0  0.5622025142495137  0.2599775187193106  0.6542341886360338  1.0000
  C   C6        1.0  0.4692316483105066  0.24053032699441568  0.6594079426009847  1.0000
  C   C7        1.0  0.41475015795369374  0.35977114828258294  0.6280825981879055  1.0000
  C   C8        1.0  0.3266421658599318  0.3438249149719679  0.632332113541568  1.0000
  C   C9        1.0  0.27144275038891474  0.466535112496306  0.6000870950451549  1.0000
  N   N2        1.0  0.22707541255646943  0.5651782799566026  0.5741649727264739  1.0000
  C   C10       1.0  0.2923354734317411  0.20846038647712573  0.667955628705195  1.0000
  C   C11       1.0  0.3458845099693178  0.08946609081669576  0.6992205662136186  1.0000
  C   C12       1.0  0.43380954526603677  0.10497425593374654  0.695086519889884  1.0000
  O   O1        1.0  0.5978911107177252  0.3846358516649145  0.6215606974275449  1.0000
  H   H1        1.0  0.7636943030769588  0.17574122942633275  0.6761134120525207  1.0000
  H   H2        1.0  0.6165999504698653  0.041540146449624775  0.7113764663615513  1.0000
  H   H3        1.0  0.44070508418780735  0.4651087550903637  0.6003564649375506  1.0000
  H   H4        1.0  0.22430260104675745  0.1949547562233478  0.6715526246661099  1.0000
  H   H5        1.0  0.3191948206990476  0.9848486264188684  0.7267575728494595  1.0000
  H   H6        1.0  0.47347804712618335  0.010722391107547139  0.7198588025874577  1.0000
  C   C13       1.0  0.010085927260135899  0.14407082043819683  0.5726968426169697  1.0000
  C   C14       1.0  0.9992647427866024  0.22756431981728586  0.4540263432035934  1.0000
  C   C15       1.0  0.9809665763733907  0.16269812896184918  0.33963824916429575  1.0000
  C   C16       1.0  0.9728839961735193  0.012372018202610358  0.3407296599882792  1.0000
  C   C17       1.0  0.9850267427811477  0.9276956072751615  0.4584984752033699  1.0000
  C   C18       1.0  0.004920120497494902  0.991174127790769  0.5743259037491136  1.0000
  N   N3        1.0  0.9532662837848392  0.9461039708547894  0.22252938445019524  1.0000
  O   O2        1.0  0.942118272396566  0.02935209620722157  0.1071945620034076  1.0000
  O   O3        1.0  0.945804295526325  0.812253926481699  0.22271432164363228  1.0000
  H   H7        1.0  0.9929104948822479  0.22067208306525332  0.8914006158064657  1.0000
  H   H8        1.0  0.9722854476659442  0.23073200324984075  0.2503505669742294  1.0000
  H   H9        1.0  0.9809340465818011  0.811138915068892  0.45941066740110537  1.0000
  H   H10       1.0  0.996243175869823  0.6931382633874918  0.7897276875217191  1.0000
  C   C19       1.0  0.007405955493197551  0.5677466612788553  0.19211833544930235  1.0000
  C   C20       1.0  0.09582266424302416  0.5822929382241622  0.19059867623905746  1.0000
  C   C21       1.0  0.1407533989208548  0.5895409008837864  0.07269448551834468  1.0000
  C   C22       1.0  0.09607229879054108  0.5820462649126443  0.9553332475391018  1.0000
  C   C23       1.0  0.007600115446478867  0.5674983150871751  0.9549044686867757  1.0000
  C   C24       1.0  0.9638117197567619  0.5604357137019527  0.07374470667919941  1.0000
  C   C25       1.0  0.23428936958547186  0.6049312152581843  0.07213160609125158  1.0000
  C   C26       1.0  0.2852004773366532  0.5254965330126511  0.9899079362733998  1.0000
  C   C27       1.0  0.37323343792878405  0.5401621688501446  0.9896163824288814  1.0000
  C   C28       1.0  0.4113744581518195  0.6340643028825703  0.07107212461941438  1.0000
  C   C29       1.0  0.36155962946149556  0.7134963209287908  0.1530544233020259  1.0000
  C   C30       1.0  0.2735022585539417  0.6991925561812453  0.1538164223400751  1.0000
  H   H11       1.0  0.973390214082302  0.5622246864375293  0.520173650799324  1.0000
  H   H12       1.0  0.13008627021139896  0.5860278099738554  0.2814619206365665  1.0000
  H   H13       1.0  0.13024721135657558  0.5895625676296137  0.8640253433533754  1.0000
  H   H14       1.0  0.8956136427951229  0.5492198477884853  0.07420094730549943  1.0000
  H   H15       1.0  0.8405528500386287  0.540955422596314  0.7467414683404496  1.0000
  H   H16       1.0  0.25705346920951655  0.45074026419972735  0.9271663153934098  1.0000
  H   H17       1.0  0.41192626834829915  0.4783615134808845  0.9263847741493652  1.0000
  H   H18       1.0  0.4795272013263099  0.6452762463874935  0.07066453214605817  1.0000
  H   H19       1.0  0.3911723489556336  0.7865339080307474  0.21587735012384757  1.0000
  H   H20       1.0  0.23601814124989373  0.7631510151467389  0.21695174988784152  1.0000
  Zn  Zn1       1.0  0.9146525500994974  0.5686601020302924  0.5732345290976641  1.0000
  Zn  Zn2       1.0  0.10034538596985682  0.5665842767324633  0.5737876220629268  1.0000
  C   C31       1.0  0.007596543072804211  0.5617992750897323  0.8107104755503334  1.0000
  C   C32       1.0  0.0074034096909314515  0.573446900852711  0.3363118126244149  1.0000
  C   C33       1.0  0.005890887224337278  0.8310553317078295  0.5688424865713209  1.0000
  C   C34       1.0  0.009109012760664564  0.3041891120119582  0.5781798673251015  1.0000
  O   O4        1.0  0.07787205713586576  0.5745658959391591  0.3849143445846166  1.0000
  O   O5        1.0  0.07806446795404674  0.5591036886526134  0.7625273523908092  1.0000
  O   O6        1.0  0.0766861796670763  0.7765313697590965  0.567217240088755  1.0000
  O   O7        1.0  0.07925028197074502  0.3571382258906559  0.5802243593369496  1.0000
  O   O8        1.0  0.935747590730746  0.7781061535820489  0.5667977916280695  1.0000
  O   O9        1.0  0.9371258684285872  0.560680205408171  0.7621078380128774  1.0000
  O   O10       1.0  0.9369334575758618  0.5761423629401343  0.3844932686106852  1.0000
  O   O11       1.0  0.9383116824949695  0.3587146825436007  0.5798033807171676  1.0000
