data_image0
_chemical_formula_structural       NC9NC3OH6C6NCOCH9C7NC2NH7Zn2C4O8
_chemical_formula_sum              "N5 C33 O10 H22 Zn2"
_cell_length_a       15.78231758774541
_cell_length_b       10.300268703208218
_cell_length_c       9.27399911348925
_cell_angle_alpha    85.0628393421283
_cell_angle_beta     89.74395178918073
_cell_angle_gamma    89.61162997741629

_space_group_name_H-M_alt    "P 1"
_space_group_IT_number       1

loop_
  _space_group_symop_operation_xyz
  'x, y, z'

loop_
  _atom_site_type_symbol
  _atom_site_label
  _atom_site_symmetry_multiplicity
  _atom_site_fract_x
  _atom_site_fract_y
  _atom_site_fract_z
  _atom_site_occupancy
  N   N1        1.0  0.8030239452046458  0.42560362580319216  0.41062384833513854  1.0000
  C   C1        1.0  0.7544190458976578  0.34333557612762  0.43738602235050994  1.0000
  C   C2        1.0  0.6940742778637463  0.2412209263834606  0.4706047748257556  1.0000
  C   C3        1.0  0.7136235629518691  0.112949159770344  0.512244626698146  1.0000
  C   C4        1.0  0.6368377865379795  0.050782993531080595  0.532507783587115  1.0000
  C   C5        1.0  0.5751408321997813  0.1457184232412947  0.5017354056112096  1.0000
  C   C6        1.0  0.4820340245566695  0.12816551706043788  0.5075267351391999  1.0000
  C   C7        1.0  0.428384438005465  0.23578815784347948  0.4724589745499903  1.0000
  C   C8        1.0  0.34016494768830147  0.22139513346819142  0.47721568417673055  1.0000
  C   C9        1.0  0.2858216744211446  0.33214918236162405  0.44111844398499717  1.0000
  N   N2        1.0  0.24214256972890483  0.42118115962740904  0.41209948910044725  1.0000
  C   C10       1.0  0.3049136067491528  0.0992192694780196  0.5170946060378518  1.0000
  C   C11       1.0  0.35763244159961005  0.9918190976765737  0.5520947074070148  1.0000
  C   C12       1.0  0.4456659172863624  0.005816733620313426  0.5474672586651697  1.0000
  O   O1        1.0  0.6116988218151864  0.258230093385754  0.46515782366009756  1.0000
  H   H1        1.0  0.7760459549796838  0.06969175956539962  0.5262305652347772  1.0000
  H   H2        1.0  0.628015294899166  0.9485664407557461  0.5657064094589532  1.0000
  H   H3        1.0  0.45507448759097335  0.33086268455271983  0.44142085474320353  1.0000
  H   H4        1.0  0.23678630984384802  0.08702914420259478  0.5211209329087423  1.0000
  H   H5        1.0  0.3302126529303054  0.8973945460981458  0.5829211052943095  1.0000
  H   H6        1.0  0.4846768072050486  0.9207481624955802  0.5751989725488036  1.0000
  C   C13       1.0  0.022673352217998488  0.04204378239155315  0.4113704908492417  1.0000
  C   C14       1.0  0.03747572389369824  0.052457427361492164  0.26138514818264946  1.0000
  C   C15       1.0  0.04608942306054886  0.9403904389590819  0.18611963494062356  1.0000
  C   C16       1.0  0.037283918055838416  0.8172995578352124  0.2614205109086438  1.0000
  C   C17       1.0  0.022501191926725284  0.8047308726238473  0.41136532091763667  1.0000
  C   C18       1.0  0.01559262562590624  0.9177072474150904  0.48563745443585954  1.0000
  N   N3        1.0  0.05992642216974931  0.9494780426493481  0.032193930397159905  1.0000
  C   C19       1.0  0.10993646291948012  0.048690264673940664  0.9548074430242881  1.0000
  O   O2        1.0  0.15754964568159735  0.12068346946158703  0.021617864474846146  1.0000
  C   C20       1.0  0.11052945060145025  0.06083827223707194  0.7931245007305736  1.0000
  H   H7        1.0  0.015814586114583088  0.36554826481010916  0.4680519015432838  1.0000
  H   H8        1.0  0.04062921736358491  0.14773539337132857  0.2026786095729792  1.0000
  H   H9        1.0  0.04274757431061005  0.7313456380956546  0.20235757791054776  1.0000
  H   H10       1.0  0.004199069336379148  0.9088659180688365  0.6013230194916588  1.0000
  H   H11       1.0  0.01564802460603042  0.4725996657408416  0.46783775982194786  1.0000
  H   H12       1.0  0.036787847334305936  0.8747418505705578  0.9741231153276568  1.0000
  H   H13       1.0  0.04582125171500892  0.044775815254332045  0.7519868117400561  1.0000
  H   H14       1.0  0.13168123365020212  0.15961524156444384  0.751109473754112  1.0000
  H   H15       1.0  0.1544008083255185  0.9869825150705391  0.753540382452071  1.0000
  C   C21       1.0  0.02404990173786569  0.42669616401102134  0.9875214214251598  1.0000
  C   C22       1.0  0.09057681127883788  0.3638432377529617  0.06622988046787137  1.0000
  C   C23       1.0  0.1514970583802585  0.29180164421221083  0.9977828604726287  1.0000
  C   C24       1.0  0.1475278658878122  0.2801303130939006  0.8484731979965905  1.0000
  C   C25       1.0  0.08227567660476984  0.3451634397381478  0.768210365388831  1.0000
  C   C26       1.0  0.021124656187007762  0.4200784716247712  0.8352143624974645  1.0000
  C   C27       1.0  0.212571960804666  0.20180854708044402  0.7779966883662337  1.0000
  N   N4        1.0  0.2835365258260707  0.1557198897089849  0.8462742497643925  1.0000
  C   C28       1.0  0.3245689669360976  0.09032932345487543  0.7470895276677765  1.0000
  C   C29       1.0  0.27828455012619546  0.09726741181308454  0.6213918761167347  1.0000
  N   N5        1.0  0.20784647527834332  0.16731880916323405  0.6409878204369197  1.0000
  H   H16       1.0  0.9338185967885672  0.5915171152411338  0.2537944032507509  1.0000
  H   H17       1.0  0.09441417382878975  0.3676690513155412  0.1823939043948557  1.0000
  H   H18       1.0  0.20119761016049453  0.24346143290001487  0.06267788811738728  1.0000
  H   H19       1.0  0.08018055216512043  0.34167079417705826  0.6520983498676893  1.0000
  H   H20       1.0  0.8889056962025533  0.49470353216431134  0.5490074681481971  1.0000
  H   H21       1.0  0.38451900601868716  0.040300006849024905  0.7656597252933222  1.0000
  H   H22       1.0  0.1599072142141731  0.18748524623944518  0.5651212032170597  1.0000
  Zn  Zn1       1.0  0.9297440631569437  0.42432386378895237  0.41105801451057894  1.0000
  Zn  Zn2       1.0  0.11542238496064056  0.4224502306282023  0.4116771217810825  1.0000
  C   C30       1.0  0.021676866901155785  0.416155971331016  0.6749823086829241  1.0000
  C   C31       1.0  0.023491607959238884  0.4306197400521674  0.14775297602219606  1.0000
  C   C32       1.0  0.02254923200816993  0.6606117040319239  0.4056147040209779  1.0000
  C   C33       1.0  0.022619179579804975  0.18616244717071145  0.4171206574339859  1.0000
  O   O3        1.0  0.09376819619959548  0.43121982855540625  0.20176309749922927  1.0000
  O   O4        1.0  0.09232583026078367  0.4141328621851448  0.6214416598199572  1.0000
  O   O5        1.0  0.09302932105046864  0.6115339557746713  0.4039254100585592  1.0000
  O   O6        1.0  0.0930646424218306  0.2338187457397953  0.4192792388288658  1.0000
  O   O7        1.0  0.952101742332881  0.6129553493182115  0.40345589724393216  1.0000
  O   O8        1.0  0.9513982514527435  0.41555581655008544  0.6209720700366235  1.0000
  O   O9        1.0  0.9528406234463925  0.43264275121331863  0.20129177240399776  1.0000
  O   O10       1.0  0.9521370692938351  0.23524165826464394  0.41880802194653316  1.0000
