data_image0
_chemical_formula_structural       NC9NC3SH6C9H10C7NC2NH8Zn2C4O8
_chemical_formula_sum              "N4 C34 S1 H24 Zn2 O8"
_cell_length_a       16.77567553997237
_cell_length_b       9.272676604525723
_cell_length_c       9.27399911348925
_cell_angle_alpha    85.31615258212881
_cell_angle_beta     90.06803896743476
_cell_angle_gamma    91.44448428757873

_space_group_name_H-M_alt    "P 1"
_space_group_IT_number       1

loop_
  _space_group_symop_operation_xyz
  'x, y, z'

loop_
  _atom_site_type_symbol
  _atom_site_label
  _atom_site_symmetry_multiplicity
  _atom_site_fract_x
  _atom_site_fract_y
  _atom_site_fract_z
  _atom_site_occupancy
  N   N1        1.0  0.7644270907125801  0.6129650306566732  0.422950030257167  1.0000
  C   C1        1.0  0.7098189178704989  0.6673437282175008  0.4694311525371664  1.0000
  C   C2        1.0  0.6420493682812594  0.7348241007886342  0.527110671596255  1.0000
  C   C3        1.0  0.6443599618012105  0.8317322450093965  0.6331940844802713  1.0000
  C   C4        1.0  0.5688656036476623  0.8797068657404163  0.6684345613441658  1.0000
  C   C5        1.0  0.5067989273642893  0.82036979185081  0.5896844654241509  1.0000
  C   C6        1.0  0.4204231998433251  0.8492114251089348  0.6018757651162743  1.0000
  C   C7        1.0  0.3633470892944788  0.761388046855593  0.53669630065009  1.0000
  C   C8        1.0  0.2818129944238366  0.7880071602722389  0.5477031596315387  1.0000
  C   C9        1.0  0.2240586799861362  0.6972336415842733  0.48095948897602675  1.0000
  N   N2        1.0  0.17764127232235913  0.6242647381238284  0.4273074373023402  1.0000
  C   C10       1.0  0.2565276285066652  0.9027994242406872  0.6237120135938405  1.0000
  C   C11       1.0  0.3125147106038391  0.9908036430912952  0.6883792890912095  1.0000
  C   C12       1.0  0.3938922302247349  0.9645850895517004  0.6777016657146517  1.0000
  S   S1        1.0  0.5471469615666112  0.7079741493436293  0.4767997057114635  1.0000
  H   H1        1.0  0.6987850194453121  0.8666726604860557  0.684219830582961  1.0000
  H   H2        1.0  0.5607352932658806  0.9544032210025124  0.7504438389018987  1.0000
  H   H3        1.0  0.3818535209256732  0.6716086523728622  0.47799613642449473  1.0000
  H   H4        1.0  0.1936293257825446  0.9243316201047306  0.6327991569439877  1.0000
  H   H5        1.0  0.29282515991069963  0.07990696409985795  0.7467235292573036  1.0000
  H   H6        1.0  0.4355526685387626  0.03593965076238703  0.7277716396090366  1.0000
  C   C13       1.0  0.9687849044892701  0.1950808109576445  0.42326130913488363  1.0000
  C   C14       1.0  0.9364705078042151  0.2572698705312473  0.5424507319490475  1.0000
  C   C15       1.0  0.9114394738784014  0.17139180020832032  0.6652443068033604  1.0000
  C   C16       1.0  0.9179145216196143  0.020753743447484714  0.6729807450777914  1.0000
  C   C17       1.0  0.9489262546635122  0.9570889427886614  0.5526656107844141  1.0000
  C   C18       1.0  0.9732910148006255  0.042137970244953804  0.4270087229917936  1.0000
  C   C19       1.0  0.8899807912782179  0.9351835880134358  0.8113286182691646  1.0000
  C   C20       1.0  0.8497308421474999  0.7881118377110522  0.7965340918012306  1.0000
  C   C21       1.0  0.9337203986859668  0.7973278205322113  0.8584880963355823  1.0000
  H   H7        1.0  0.9872780535212713  0.49644240011275276  0.1869516136007432  1.0000
  H   H8        1.0  0.9322638175821372  0.37367855246021175  0.5422676274223126  1.0000
  H   H9        1.0  0.8875170709433068  0.22340575416952024  0.755675841191435  1.0000
  H   H10       1.0  0.9527255822430355  0.8407809963275421  0.5540458975340685  1.0000
  H   H11       1.0  0.9951565395315811  0.9689535466573687  0.0738463930773936  1.0000
  H   H12       1.0  0.8671074599209038  0.9939010793840483  0.9019591425812934  1.0000
  H   H13       1.0  0.846396754329199  0.7497147589218935  0.6864719573041105  1.0000
  H   H14       1.0  0.8032440363771297  0.7573437110100696  0.8793074400150167  1.0000
  H   H15       1.0  0.9813809070927356  0.7643990771334961  0.7861446703631811  1.0000
  H   H16       1.0  0.9363193331516113  0.7719397151705497  0.9774896234395611  1.0000
  C   C22       1.0  0.9724346279671131  0.6223383024964322  0.0013144716602211438  1.0000
  C   C23       1.0  0.03465639655468  0.5549879740341268  0.0801534859854498  1.0000
  C   C24       1.0  0.09154566456228941  0.477225443807082  0.011754724773272553  1.0000
  C   C25       1.0  0.08773894214621605  0.4641163721657571  0.8623613744125089  1.0000
  C   C26       1.0  0.026730118366044223  0.5339351579927825  0.7819871455761218  1.0000
  C   C27       1.0  0.9696412636613996  0.6148804968039105  0.8489555000560509  1.0000
  C   C28       1.0  0.14847060047180927  0.37953113552444684  0.7919294828090739  1.0000
  N   N3        1.0  0.2149711195557431  0.3309635455681325  0.8604494507235119  1.0000
  C   C29       1.0  0.2531852822952543  0.2598536285294619  0.7612142172773401  1.0000
  C   C30       1.0  0.20967088103159082  0.26585054692481647  0.6352446659498732  1.0000
  N   N4        1.0  0.1438124917264123  0.34105132410911443  0.6547196216227293  1.0000
  H   H17       1.0  0.8885294720860423  0.8020623088240864  0.26780200985153746  1.0000
  H   H18       1.0  0.03829103870452454  0.5593787075729657  0.1963617130958748  1.0000
  H   H19       1.0  0.13802148238280162  0.4253721816823801  0.07674047338492951  1.0000
  H   H20       1.0  0.024737083047376537  0.5299787711798963  0.665844086823606  1.0000
  H   H21       1.0  0.845670743268192  0.6928800889731181  0.5622416129898866  1.0000
  H   H22       1.0  0.3092962446712406  0.2065027864572908  0.7799345954050478  1.0000
  H   H23       1.0  0.22471910759962116  0.21810986894871706  0.5365003211788237  1.0000
  H   H24       1.0  0.09882173164920748  0.3616789564668763  0.5786352677780401  1.0000
  Zn  Zn1       1.0  0.8836717325020051  0.6162219580310102  0.4242158100406992  1.0000
  Zn  Zn2       1.0  0.058396523919302945  0.620995940776458  0.42605345775638814  1.0000
  C   C31       1.0  0.9701369245187222  0.6105444348790188  0.6887077923990748  1.0000
  C   C32       1.0  0.9719332491057783  0.6266753346038194  0.16156164517107818  1.0000
  C   C33       1.0  0.9724540909686171  0.8820766367701044  0.4205490850637006  1.0000
  C   C34       1.0  0.969616013562916  0.3551413975927111  0.42972042115923514  1.0000
  O   O1        1.0  0.03807209606436145  0.6299362916087596  0.21603941037181262  1.0000
  O   O2        1.0  0.03661014697047182  0.6109057359274151  0.6356243390204955  1.0000
  O   O3        1.0  0.038480389385783464  0.8301713853216477  0.4190842828132153  1.0000
  O   O4        1.0  0.036201794438812884  0.41067065185496393  0.43257935778386036  1.0000
  O   O5        1.0  0.905866402357532  0.8265472453250156  0.41768990937854333  1.0000
  O   O6        1.0  0.9039961694102248  0.6072833294233164  0.634229896298357  1.0000
  O   O7        1.0  0.9054581240080736  0.6263138501134007  0.21464323222176174  1.0000
  O   O8        1.0  0.903587821967799  0.407048199091679  0.431183287794358  1.0000
