data_image0
_chemical_formula_structural       NC5NC3BrH3C9H8C6NH7Zn2C4O8
_chemical_formula_sum              "N3 C27 Br1 H18 Zn2 O8"
_cell_length_a       13.839083392302014
_cell_length_b       9.275152443626249
_cell_length_c       9.274774538082513
_cell_angle_alpha    84.86265069898316
_cell_angle_beta     90.35089926540529
_cell_angle_gamma    90.59950914120974

_space_group_name_H-M_alt    "P 1"
_space_group_IT_number       1

loop_
  _space_group_symop_operation_xyz
  'x, y, z'

loop_
  _atom_site_type_symbol
  _atom_site_label
  _atom_site_symmetry_multiplicity
  _atom_site_fract_x
  _atom_site_fract_y
  _atom_site_fract_z
  _atom_site_occupancy
  N   N1        1.0  0.9140546751102335  0.5933210233862294  0.40252327120151565  1.0000
  C   C1        1.0  0.8416356788413741  0.5296276455138222  0.40521061423028804  1.0000
  C   C2        1.0  0.7514081708315768  0.4503710628802222  0.4085544401969572  1.0000
  C   C3        1.0  0.6643502526742637  0.5266331020897079  0.4053371480455272  1.0000
  C   C4        1.0  0.5758146370333993  0.45184498525297445  0.408492199301155  1.0000
  C   C5        1.0  0.48656968195432243  0.5304603363259563  0.4051754661997855  1.0000
  N   N2        1.0  0.41482834448664874  0.5936609171469687  0.4025088755039703  1.0000
  C   C6        1.0  0.5742690686451537  0.30048307230378213  0.4148777429388626  1.0000
  C   C7        1.0  0.6608811471203068  0.224099667473185  0.4181000637695147  1.0000
  C   C8        1.0  0.7496081181783313  0.29817307827815137  0.4149751841919733  1.0000
  Br  Br1       1.0  0.8662906839770916  0.18799306815303463  0.4196234652354749  1.0000
  H   H1        1.0  0.6654928461001814  0.6439257760550772  0.40038869248665154  1.0000
  H   H2        1.0  0.5061894959960288  0.24158254733515894  0.4173623264865942  1.0000
  H   H3        1.0  0.6589769857309248  0.107056406142642  0.4230376195933181  1.0000
  C   C9        1.0  0.16160158345105935  0.16984390744860844  0.40398967118795204  1.0000
  C   C10       1.0  0.12624911758372903  0.25362678982996667  0.28137486758190966  1.0000
  C   C11       1.0  0.09986943333500653  0.18925500188072664  0.15646413251558866  1.0000
  C   C12       1.0  0.10842594000404615  0.0399603870788896  0.1516950023239938  1.0000
  C   C13       1.0  0.1418846731253971  0.9544970941768814  0.2732735977511418  1.0000
  C   C14       1.0  0.16729066354120792  0.01712683471700638  0.4010549856330192  1.0000
  C   C15       1.0  0.08172480008955293  0.9739188911145559  0.02234206263545291  1.0000
  C   C16       1.0  0.059368794731611725  0.9185913253505209  0.9140292566913497  1.0000
  C   C17       1.0  0.03224419148993585  0.851449112530858  0.782610662588699  1.0000
  H   H4        1.0  0.30161080231919946  0.24908095974979783  0.6922304344230341  1.0000
  H   H5        1.0  0.12115720206363711  0.37014477242939803  0.28092101855562346  1.0000
  H   H6        1.0  0.07365743543178828  0.25629076290904185  0.06298915569439312  1.0000
  H   H7        1.0  0.14593681336295528  0.8382248666238724  0.2692471954206235  1.0000
  H   H8        1.0  0.2584695099779162  0.7201729594537438  0.5982021217403017  1.0000
  H   H9        1.0  0.049963270187817654  0.7346219230161425  0.7960937260011036  1.0000
  H   H10       1.0  0.9535175350848195  0.8641502640215594  0.7628541889021712  1.0000
  H   H11       1.0  0.07267428063374727  0.9046384125211607  0.6891864757698563  1.0000
  C   C18       1.0  0.162736755210926  0.5971739982363108  0.9786933016940514  1.0000
  C   C19       1.0  0.2317774625228739  0.6823546681214716  0.04513297327600573  1.0000
  C   C20       1.0  0.3050734214526604  0.7556544785923598  0.964112254867065  1.0000
  C   C21       1.0  0.30992055218736825  0.7441062363551495  0.8151747083529091  1.0000
  C   C22       1.0  0.24121119693499038  0.6621038159297665  0.7470214578411523  1.0000
  C   C23       1.0  0.16615547528904928  0.5897966705010622  0.8263513887594813  1.0000
  N   N3        1.0  0.3752220827672644  0.8406351956560751  0.033557834902176786  1.0000
  H   H12       1.0  0.016407240320771788  0.31506095275749724  0.10559455234003146  1.0000
  H   H13       1.0  0.23008404448721276  0.6891956379387876  0.1611294540845798  1.0000
  H   H14       1.0  0.3665050587649701  0.7998830537342312  0.751449266541734  1.0000
  H   H15       1.0  0.2454931039143653  0.6580938072546954  0.6308621837651147  1.0000
  H   H16       1.0  0.0646592502647858  0.4041734796466547  0.560915175974797  1.0000
  H   H17       1.0  0.3724768416083519  0.8496801715438105  0.14489650356608874  1.0000
  H   H18       1.0  0.43040427210473564  0.8952765836533455  0.9741250471892705  1.0000
  Zn  Zn1       1.0  0.05856714940706986  0.5934151688441107  0.4025274713922431  1.0000
  Zn  Zn2       1.0  0.27031583070524245  0.5935548439923497  0.4025165607827992  1.0000
  C   C24       1.0  0.16546852441204463  0.5854439469972541  0.6661457677198404  1.0000
  C   C25       1.0  0.16341678078282906  0.6015278864064646  0.1388983996894222  1.0000
  C   C26       1.0  0.166187130408457  0.857022348933044  0.39585837803560864  1.0000
  C   C27       1.0  0.1626980912036693  0.32994775047757674  0.40918587232814163  1.0000
  O   O1        1.0  0.24400248233208433  0.6030358032021084  0.19266057534823067  1.0000
  O   O2        1.0  0.24559516345388444  0.5840409556898418  0.6123748994618738  1.0000
  O   O3        1.0  0.24617436967883122  0.8033439360550658  0.39411591482396013  1.0000
  O   O4        1.0  0.2434232034844992  0.38373283405116654  0.4109194517381387  1.0000
  O   O5        1.0  0.08545970436836069  0.8032371787392667  0.39412458043302956  1.0000
  O   O6        1.0  0.084880509466708  0.5839359323211124  0.6123834821125826  1.0000
  O   O7        1.0  0.0832878210731367  0.6029307446624859  0.19266742293210304  1.0000
  O   O8        1.0  0.08270854258873639  0.38362776425123446  0.4109264075661434  1.0000
