data_image0
_chemical_formula_structural       NC5OC5NC4H8C6ClH5C6NH7Zn2C4O8
_chemical_formula_sum              "N3 C30 O9 H20 Cl1 Zn2"
_cell_length_a       19.189071930511275
_cell_length_b       10.30297070629231
_cell_length_c       9.274774538082514
_cell_angle_alpha    85.06361778746081
_cell_angle_beta     90.32765294797488
_cell_angle_gamma    89.98947815314023

_space_group_name_H-M_alt    "P 1"
_space_group_IT_number       1

loop_
  _space_group_symop_operation_xyz
  'x, y, z'

loop_
  _atom_site_type_symbol
  _atom_site_label
  _atom_site_symmetry_multiplicity
  _atom_site_fract_x
  _atom_site_fract_y
  _atom_site_fract_z
  _atom_site_occupancy
  N   N1        1.0  0.6514956692208085  0.43315797831490493  0.407561965693753  1.0000
  C   C1        1.0  0.5969780433153921  0.47942068666505944  0.3872350480915441  1.0000
  C   C2        1.0  0.5291651481862927  0.5369637892865975  0.3619514171938565  1.0000
  C   C3        1.0  0.519135347699921  0.6347399970683139  0.24924679097525027  1.0000
  C   C4        1.0  0.45326285659194687  0.6907076875876865  0.22482656960617065  1.0000
  C   C5        1.0  0.3967569493978766  0.6488074686208707  0.3116048370028599  1.0000
  O   O1        1.0  0.3317059952261126  0.708425313972094  0.2846676544324518  1.0000
  C   C6        1.0  0.2668140659468009  0.6486228891926491  0.3109778245731525  1.0000
  C   C7        1.0  0.2101495251603867  0.7259237961468135  0.34460665967012977  1.0000
  C   C8        1.0  0.1444257021715357  0.6702340791298405  0.36997223678644753  1.0000
  C   C9        1.0  0.1347039635087069  0.5365310274524651  0.36047988892627814  1.0000
  C   C10       1.0  0.067043912274855  0.4791822473713783  0.3864241731417777  1.0000
  N   N2        1.0  0.012649219523200302  0.43307582105575504  0.40728271099118185  1.0000
  C   C11       1.0  0.19088898391583184  0.4589386387763561  0.32472023349509826  1.0000
  C   C12       1.0  0.25660408937212  0.5146674040724395  0.2994031493974312  1.0000
  C   C13       1.0  0.4072742079176034  0.5519195159216397  0.42610800068396815  1.0000
  C   C14       1.0  0.473137987183349  0.4959471877270236  0.45059643217320633  1.0000
  H   H1        1.0  0.5621804423887886  0.6677809213426944  0.18046673075761044  1.0000
  H   H2        1.0  0.44596937403950976  0.7664053306263814  0.13762339579454497  1.0000
  H   H3        1.0  0.2172045075949167  0.8294086438258822  0.35191595012867016  1.0000
  H   H4        1.0  0.10125515196762681  0.7313724108639583  0.3967598005425983  1.0000
  H   H5        1.0  0.18382231676915844  0.35562061217231866  0.3156607917486405  1.0000
  H   H6        1.0  0.29905433913898993  0.4537674365196298  0.2688218714336921  1.0000
  H   H7        1.0  0.3649460759376409  0.5210338838528541  0.4976143907297086  1.0000
  H   H8        1.0  0.48044157963424783  0.4212875457454663  0.5390125944592823  1.0000
  C   C15       1.0  0.8320757965153638  0.051869419092222875  0.40742855241560516  1.0000
  C   C16       1.0  0.9041165948689911  0.04849222019955457  0.43517122860384344  1.0000
  C   C17       1.0  0.93986131591512  0.9298597011282387  0.448936303181237  1.0000
  C   C18       1.0  0.9041165941123501  0.8133842520615094  0.43517116072889617  1.0000
  C   C19       1.0  0.8320758041962484  0.8143543602559964  0.407428635026982  1.0000
  C   C20       1.0  0.7964065712889986  0.9341881671705287  0.3936924982672019  1.0000
  Cl  Cl1       1.0  0.029857436918496516  0.9271442927946905  0.48359341608238227  1.0000
  H   H9        1.0  0.8049392871405723  0.3804446754199917  0.3969775641809383  1.0000
  H   H10       1.0  0.9327689708057962  0.13767429160395794  0.44620504124531024  1.0000
  H   H11       1.0  0.9327689429410342  0.7224730995944298  0.44620493757575685  1.0000
  H   H12       1.0  0.7408465212858769  0.9358644385260362  0.3722964680059757  1.0000
  H   H13       1.0  0.8049392845461959  0.48741670660993897  0.39697783666829123  1.0000
  C   C21       1.0  0.8308251613938985  0.43643269212890456  0.9836132203310898  1.0000
  C   C22       1.0  0.880204459027832  0.5130352418290496  0.050311546530703355  1.0000
  C   C23       1.0  0.9327101529445166  0.5789426368117383  0.9695060283886331  1.0000
  C   C24       1.0  0.9362617985202112  0.5685463533639881  0.8205258662858248  1.0000
  C   C25       1.0  0.8871060797302971  0.49480372655284954  0.7521248047346161  1.0000
  C   C26       1.0  0.8333264477027891  0.42979101699298555  0.8312439121917272  1.0000
  N   N3        1.0  0.9828894691750615  0.6553643859922589  0.03920898106316395  1.0000
  H   H14       1.0  0.7266592310026602  0.18266605917510928  0.10961407833915925  1.0000
  H   H15       1.0  0.8789500483472956  0.5191928994902972  0.16633264615863164  1.0000
  H   H16       1.0  0.9768001386267352  0.618697352062263  0.7569637484253238  1.0000
  H   H17       1.0  0.890213585693423  0.49119171033748876  0.635949351989368  1.0000
  H   H18       1.0  0.7610267945764321  0.2628230832584548  0.5652180350221885  1.0000
  H   H19       1.0  0.9808658166982525  0.6635062941814509  0.1505804691613606  1.0000
  H   H20       1.0  0.022421964026124067  0.7044946721872559  0.9799363256439024  1.0000
  Zn  Zn1       1.0  0.755716815847296  0.4331307408125708  0.40748970695007714  1.0000
  Zn  Zn2       1.0  0.9084281250967827  0.4330923852157851  0.40736676993521526  1.0000
  C   C27       1.0  0.8328521002500672  0.42587443346743736  0.6710235643769698  1.0000
  C   C28       1.0  0.8312945087148165  0.4403503291298023  0.14383305281941028  1.0000
  C   C29       1.0  0.8320552563678131  0.6702735111838316  0.4016774105719909  1.0000
  C   C30       1.0  0.8320913007143872  0.19594969101799387  0.41317928361118006  1.0000
  O   O2        1.0  0.8894051719615951  0.4416449042094852  0.1975576382720612  1.0000
  O   O3        1.0  0.8906457859984774  0.4245497712221509  0.6172052571193996  1.0000
  O   O4        1.0  0.8900015476783486  0.62190510576393  0.39970633288213486  1.0000
  O   O5        1.0  0.8900493578523726  0.2442895798159599  0.41505645433878957  1.0000
  O   O6        1.0  0.774095530978809  0.6219335462269582  0.3998000225808642  1.0000
  O   O7        1.0  0.774739769068724  0.4245797720951545  0.6172988698656996  1.0000
  O   O8        1.0  0.7734991499577922  0.44167487343702927  0.19764951583344326  1.0000
  O   O9        1.0  0.7741433361650242  0.24431953890981184  0.41514844010506935  1.0000
