data_image0
_chemical_formula_structural       NC5NC3OH4C6ClH5C6BrH4Zn2C4O8
_chemical_formula_sum              "N2 C24 O9 H13 Cl1 Br1 Zn2"
_cell_length_a       13.84702359539666
_cell_length_b       10.30297070629231
_cell_length_c       9.276567756262418
_cell_angle_alpha    86.12016662879066
_cell_angle_beta     90.17190505705399
_cell_angle_gamma    89.99918224466363

_space_group_name_H-M_alt    "P 1"
_space_group_IT_number       1

loop_
  _space_group_symop_operation_xyz
  'x, y, z'

loop_
  _atom_site_type_symbol
  _atom_site_label
  _atom_site_symmetry_multiplicity
  _atom_site_fract_x
  _atom_site_fract_y
  _atom_site_fract_z
  _atom_site_occupancy
  N   N1        1.0  0.9058851918765644  0.4068585545126613  0.41031532185406144  1.0000
  C   C1        1.0  0.8338784366216495  0.3996096852665534  0.47334973292151106  1.0000
  C   C2        1.0  0.7442030096180036  0.3905833117304913  0.5518408562451262  1.0000
  C   C3        1.0  0.65645366107475  0.39930335536786704  0.4760127967901897  1.0000
  C   C4        1.0  0.5687555442857638  0.39068462450559055  0.5509594416718321  1.0000
  C   C5        1.0  0.478734407467408  0.3996625936913855  0.47288934420518514  1.0000
  N   N2        1.0  0.4063690564456804  0.4068801936577897  0.4101272098117558  1.0000
  C   C6        1.0  0.5688019145322478  0.37331983209796  0.7019594305468742  1.0000
  C   C7        1.0  0.6561711826295153  0.364591636405202  0.7778554934771313  1.0000
  C   C8        1.0  0.7441857841303877  0.37315483643912434  0.7033933334165727  1.0000
  O   O1        1.0  0.8312757067170231  0.3644117561900468  0.7794207462315113  1.0000
  H   H1        1.0  0.6564223176280211  0.4127562085946599  0.3590309984796467  1.0000
  H   H2        1.0  0.5013757051963863  0.3665364292179263  0.7609458890065264  1.0000
  H   H3        1.0  0.6554236683215963  0.35116547275077503  0.8946059757732425  1.0000
  H   H4        1.0  0.8330458462289831  0.35184610849735376  0.8886874959124981  1.0000
  C   C9        1.0  0.1561317335392034  0.025621976761620147  0.41022745977052266  1.0000
  C   C10       1.0  0.2559121031931557  0.02272798335562998  0.43794310341176135  1.0000
  C   C11       1.0  0.30542045921594285  0.9043352162712579  0.4516947653248371  1.0000
  C   C12       1.0  0.255912102274545  0.7876200140880549  0.43794303564700976  1.0000
  C   C13       1.0  0.15613174402515664  0.7881069193021869  0.41022754224947633  1.0000
  C   C14       1.0  0.10672794337704383  0.9077014783547355  0.3965047900432419  1.0000
  Cl  Cl1       1.0  0.4300699139702902  0.9022234450613257  0.48631810829588556  1.0000
  H   H5        1.0  0.11854621412370347  0.35401520460121727  0.39978665553632964  1.0000
  H   H6        1.0  0.2955971808830644  0.11210223526372108  0.4489661647537344  1.0000
  H   H7        1.0  0.2955971424667905  0.6969010415209761  0.44896606124578464  1.0000
  H   H8        1.0  0.02977429420918233  0.9090050863681344  0.37512960816192015  1.0000
  H   H9        1.0  0.11854621000680843  0.4609872403240278  0.3997869275798817  1.0000
  C   C15       1.0  0.15520993974025976  0.4031334385214238  0.9871010693035375  1.0000
  C   C16       1.0  0.06939207068718267  0.4343840197345554  0.057744168494859416  1.0000
  C   C17       1.0  0.9878656186016637  0.47632888201969203  0.9790738272352821  1.0000
  C   C18       1.0  0.9906257209177222  0.48787273115962293  0.8285769463817865  1.0000
  C   C19       1.0  0.0745503233976128  0.4552196193944659  0.7562074964987299  1.0000
  C   C20       1.0  0.1570535903057564  0.4105954638615732  0.8333538993391656  1.0000
  Br  Br1       1.0  0.8790419525514532  0.5463249462279823  0.7213686681213098  1.0000
  H   H10       1.0  0.28806353803758555  0.2852182756353036  0.2778853111837005  1.0000
  H   H11       1.0  0.9227582876258695  0.5010790090335984  0.03541569058970649  1.0000
  H   H12       1.0  0.07439833310358979  0.4618513418610475  0.6391570907339794  1.0000
  H   H13       1.0  0.3159527584082584  0.397196326542097  0.5538994333269045  1.0000
  Zn  Zn1       1.0  0.050314040518338876  0.40686139679065336  0.4102693451032864  1.0000
  Zn  Zn2       1.0  0.2619402093614236  0.4068668321321122  0.4101849458430853  1.0000
  C   C21       1.0  0.15670291875471287  0.4040129157165591  0.6733939791225192  1.0000
  C   C22       1.0  0.1555536423843995  0.4097169526102417  0.14706045232550366  1.0000
  C   C23       1.0  0.15611427880805612  0.6439303752389118  0.4044856659162736  1.0000
  C   C24       1.0  0.15614221028513  0.1697979339578075  0.41596884238031007  1.0000
  O   O2        1.0  0.23598002030820808  0.41192283882656033  0.20071225343506316  1.0000
  O   O3        1.0  0.23689590538291583  0.40181017173080336  0.6196777061474767  1.0000
  O   O4        1.0  0.23641949181456212  0.5955465676486752  0.4025323410943306  1.0000
  O   O5        1.0  0.23645636142752152  0.21818645124146552  0.41785751048042963  1.0000
  O   O6        1.0  0.07579781623459958  0.595541777680792  0.40259678048716413  1.0000
  O   O7        1.0  0.0762742296312371  0.4018069408924927  0.6197420687129722  1.0000
  O   O8        1.0  0.07535834084668536  0.41191954747127596  0.20077488363631812  1.0000
  O   O9        1.0  0.07583468219739742  0.21818315155289536  0.4179202487106868  1.0000
