data_image0
_chemical_formula_structural       NC9NC3OH6C7H7C6ClH3Zn2C4O8
_chemical_formula_sum              "N2 C29 O9 H16 Cl1 Zn2"
_cell_length_a       15.78231758774541
_cell_length_b       9.274341958901593
_cell_length_c       10.302974078461048
_cell_angle_alpha    85.52847860728707
_cell_angle_beta     90.08385130592438
_cell_angle_gamma    89.0114341261544

_space_group_name_H-M_alt    "P 1"
_space_group_IT_number       1

loop_
  _space_group_symop_operation_xyz
  'x, y, z'

loop_
  _atom_site_type_symbol
  _atom_site_label
  _atom_site_symmetry_multiplicity
  _atom_site_fract_x
  _atom_site_fract_y
  _atom_site_fract_z
  _atom_site_occupancy
  N   N1        1.0  0.7878749012710744  0.5697922931568036  0.5695589431363741  1.0000
  C   C1        1.0  0.7399235298886835  0.4786401854900692  0.593678957793518  1.0000
  C   C2        1.0  0.6803899502072219  0.36549826335321645  0.6236181091300259  1.0000
  C   C3        1.0  0.7009579140376365  0.2233737766262958  0.6611471245817169  1.0000
  C   C4        1.0  0.624666115135267  0.15449468676093647  0.6794096808755379  1.0000
  C   C5        1.0  0.5622153802576025  0.2596830729396957  0.6516751807842769  1.0000
  C   C6        1.0  0.4692482870543601  0.2402353479897317  0.656894601625247  1.0000
  C   C7        1.0  0.41474356285732  0.35947956820646443  0.6252890926204555  1.0000
  C   C8        1.0  0.3266386624937361  0.34353289999515946  0.6295760508906918  1.0000
  C   C9        1.0  0.2714153392809218  0.46624659265712265  0.5970427195239891  1.0000
  N   N2        1.0  0.22702878303632396  0.5648925693379918  0.5708888313633143  1.0000
  C   C10       1.0  0.2923583296990605  0.208164533273691  0.665517589746139  1.0000
  C   C11       1.0  0.34593055093248776  0.08916684713028665  0.6970621108937476  1.0000
  C   C12       1.0  0.43385257975756725  0.10467543478655772  0.6928916507725411  1.0000
  O   O1        1.0  0.5978796681806189  0.3843449836777402  0.6187087664700281  1.0000
  H   H1        1.0  0.7637236460650244  0.17544430105884026  0.6737524221823181  1.0000
  H   H2        1.0  0.6166554403531886  0.04123939517353881  0.7093307882700528  1.0000
  H   H3        1.0  0.44067797782445667  0.464820160298073  0.5973154824116409  1.0000
  H   H4        1.0  0.2243280763891577  0.19465853399064728  0.6691462987495758  1.0000
  H   H5        1.0  0.3192612325957056  0.9845464179954776  0.7248449024398971  1.0000
  H   H6        1.0  0.4735394434296238  0.01042088714473333  0.7178853801446419  1.0000
  C   C13       1.0  0.010149890610854362  0.14373661285878248  0.5704544628565658  1.0000
  C   C14       1.0  0.020166561957089865  0.22696973431540798  0.4516130150185449  1.0000
  C   C15       1.0  0.021752850661348012  0.16199783520189534  0.33400628705888424  1.0000
  C   C16       1.0  0.01243058234961202  0.012471573501531713  0.33241014599874763  1.0000
  C   C17       1.0  0.005053568837013024  0.927601123507841  0.45029894158183953  1.0000
  C   C18       1.0  0.004761929344180289  0.9909370632605543  0.5700045823317024  1.0000
  C   C19       1.0  0.016010735739692795  0.9424401880564302  0.2060325482490741  1.0000
  H   H7        1.0  0.9396409699604578  0.22268101186167752  0.871028767046107  1.0000
  H   H8        1.0  0.02496901429846886  0.3435238869059736  0.4493960488171831  1.0000
  H   H9        1.0  0.02935840565282065  0.22878925834618924  0.2438963190672736  1.0000
  H   H10       1.0  0.9606615746981995  0.6938353198846172  0.7740783863731895  1.0000
  H   H11       1.0  0.08264903539142376  0.9121497171862638  0.1849679311560033  1.0000
  H   H12       1.0  0.9913005429888494  0.017533158044854114  0.1249383415470231  1.0000
  H   H13       1.0  0.9769161499407941  0.8437043570464438  0.21110714829013524  1.0000
  C   C20       1.0  0.007455927283967826  0.5673368661744835  0.18898701413900842  1.0000
  C   C21       1.0  0.9936687650400702  0.41767718544998056  0.19825561153630566  1.0000
  C   C22       1.0  0.9868279946729188  0.34342012766708097  0.08589764570643643  1.0000
  C   C23       1.0  0.9936688024209199  0.4176772664941631  0.9631477126367041  1.0000
  C   C24       1.0  0.007455925596064898  0.5673367917373431  0.9514720332454263  1.0000
  C   C25       1.0  0.014282315504224196  0.6414371350606045  0.06504451839494929  1.0000
  Cl  Cl1       1.0  0.9696045564293444  0.15645963244659922  0.09897986851925954  1.0000
  H   H14       1.0  0.988185300183259  0.3581540354390138  0.2924671789122948  1.0000
  H   H15       1.0  0.9881853595284255  0.3581540141948045  0.8772662130286354  1.0000
  H   H16       1.0  0.024915350830053255  0.756859173245376  0.05696797274333765  1.0000
  Zn  Zn1       1.0  0.9146052461623079  0.568374485533861  0.5699502131802285  1.0000
  Zn  Zn2       1.0  0.10029848452735218  0.5662986035915047  0.5705081803716525  1.0000
  C   C26       1.0  0.0074905707045596105  0.5615901878361981  0.8073490570998415  1.0000
  C   C27       1.0  0.007415176174210052  0.5730846987183937  0.33310946900264593  1.0000
  C   C28       1.0  0.005776023221380379  0.8307982063605615  0.5649161251774972  1.0000
  C   C29       1.0  0.00912967131530706  0.3038749477952456  0.5755424708706502  1.0000
  O   O2        1.0  0.07787115596363264  0.5742196442225811  0.38169003041309835  1.0000
  O   O3        1.0  0.077971469105955  0.5588786077429955  0.7591916067330013  1.0000
  O   O4        1.0  0.07658600036571567  0.7762674979211555  0.5634252953014831  1.0000
  O   O5        1.0  0.07925656127372388  0.3568307650719049  0.5774562443063509  1.0000
  O   O6        1.0  0.9356471060479379  0.7778423247634281  0.5630021490482933  1.0000
  O   O7        1.0  0.9370325637622601  0.5604551676940204  0.7587683903369145  1.0000
  O   O8        1.0  0.9369322509960167  0.5757961539049636  0.38126525316078586  1.0000
  O   O9        1.0  0.9383176563682569  0.3584072644367715  0.5770315643950679  1.0000
