data_image0
_chemical_formula_structural       NC9NC3OH6C7NH5C6NH7Zn2C4O8
_chemical_formula_sum              "N4 C29 O9 H18 Zn2"
_cell_length_a       15.78231758774541
_cell_length_b       10.302819778424748
_cell_length_c       9.274774538082513
_cell_angle_alpha    85.06361955087617
_cell_angle_beta     90.43038941912484
_cell_angle_gamma    89.6314472413266

_space_group_name_H-M_alt    "P 1"
_space_group_IT_number       1

loop_
  _space_group_symop_operation_xyz
  'x, y, z'

loop_
  _atom_site_type_symbol
  _atom_site_label
  _atom_site_symmetry_multiplicity
  _atom_site_fract_x
  _atom_site_fract_y
  _atom_site_fract_z
  _atom_site_occupancy
  N   N1        1.0  0.7921560142705064  0.42535115450677985  0.4107275067068766  1.0000
  C   C1        1.0  0.7437209566825956  0.34310194651177284  0.43748753724443357  1.0000
  C   C2        1.0  0.6835870062465663  0.24101068384822932  0.47070362911966257  1.0000
  C   C3        1.0  0.7034004910228108  0.11276830080906097  0.5123401440694667  1.0000
  C   C4        1.0  0.6267433393012203  0.05061636971263428  0.532601678854703  1.0000
  C   C5        1.0  0.5648511698738894  0.1455300492875118  0.5018317678699729  1.0000
  C   C6        1.0  0.4717811723644593  0.1279811578659762  0.5076226352569928  1.0000
  C   C7        1.0  0.4179089940688186  0.23557915384887318  0.47255768215942195  1.0000
  C   C8        1.0  0.32971974319380376  0.22118942097212324  0.47731401237095633  1.0000
  C   C9        1.0  0.27514733725170754  0.3319181085970242  0.44121966189834466  1.0000
  N   N2        1.0  0.23128402937907522  0.4209296987662732  0.41220303005977743  1.0000
  C   C10       1.0  0.29472158063242476  0.09904152981685475  0.517189743013114  1.0000
  C   C11       1.0  0.3476625811088093  0.9916659515541061  0.5521870424086461  1.0000
  C   C12       1.0  0.43566663812991396  0.005660386512257959  0.5475599627424671  1.0000
  O   O1        1.0  0.6011770418534951  0.25801594960639496  0.465257116030289  1.0000
  H   H1        1.0  0.7659115828885263  0.06952081340575521  0.5263249606185589  1.0000
  H   H2        1.0  0.6181315005547517  0.948423230860511  0.5657976446196245  1.0000
  H   H3        1.0  0.4444019890492328  0.3306319130674351  0.44152204599719935  1.0000
  H   H4        1.0  0.22661987835915912  0.08685419242018264  0.5212157486785642  1.0000
  H   H5        1.0  0.3204385031906548  0.8972630186224512  0.583010973603015  1.0000
  H   H6        1.0  0.4748535634053667  0.9206112946170295  0.5752894567233756  1.0000
  C   C13       1.0  0.011724080842900659  0.041887314237170736  0.4114714845867689  1.0000
  C   C14       1.0  0.9627190915931321  0.03149153751322409  0.5376890174814473  1.0000
  C   C15       1.0  0.9383386263901657  0.9092169605216207  0.6004834337487915  1.0000
  C   C16       1.0  0.9627191599967309  0.7961905269767685  0.5376890224409976  1.0000
  C   C17       1.0  0.011724094963525115  0.8043833409411858  0.41147152753023364  1.0000
  C   C18       1.0  0.035970565249687336  0.9277339687888703  0.34902224060655995  1.0000
  C   C19       1.0  0.8881014105354806  0.8996888729162563  0.7298749525191213  1.0000
  N   N3        1.0  0.8477271273869802  0.8920314393471509  0.8338632904825889  1.0000
  H   H7        1.0  0.030285972874817043  0.37314741707829624  0.3636627369953487  1.0000
  H   H8        1.0  0.9433920692983366  0.11825023306896541  0.587467572879594  1.0000
  H   H9        1.0  0.9433921749279397  0.7021006281496965  0.5874675389482096  1.0000
  H   H10       1.0  0.07376148160748941  0.9349013796308937  0.25168782388612  1.0000
  H   H11       1.0  0.030286051001236595  0.48016433484531246  0.36366284694880013  1.0000
  C   C20       1.0  0.010203420857061165  0.4264712464383124  0.9876500889926058  1.0000
  C   C21       1.0  0.07024389370164963  0.5024816186971288  0.05458834231582266  1.0000
  C   C22       1.0  0.13408576381427362  0.5677591154846497  0.9740379414920907  1.0000
  C   C23       1.0  0.13840422329704571  0.5573200062286496  0.8250750357987725  1.0000
  C   C24       1.0  0.07863560075346203  0.4841669124151924  0.7564351335479116  1.0000
  C   C25       1.0  0.013244744463029031  0.4197994207058173  0.8352929338966877  1.0000
  N   N4        1.0  0.19509898229500333  0.6435790722362829  0.04398470842067881  1.0000
  H   H12       1.0  0.8835476780711273  0.1739524653829454  0.1131448161294011  1.0000
  H   H13       1.0  0.06871865089030882  0.508654438474232  0.17060334721287562  1.0000
  H   H14       1.0  0.18769494305351508  0.6069846654427291  0.7617098876483004  1.0000
  H   H15       1.0  0.08241402906283163  0.4805175061608815  0.6402747794539922  1.0000
  H   H16       1.0  0.9253353267157595  0.2536977322474878  0.5689157609263096  1.0000
  H   H17       1.0  0.1926384154376536  0.6517454141558532  0.15534636425747353  1.0000
  H   H18       1.0  0.24316669102872035  0.6922350893735285  0.9849041354679313  1.0000
  Zn  Zn1       1.0  0.9188788999778231  0.4240716844195427  0.4111616384833675  1.0000
  Zn  Zn2       1.0  0.10456115751034421  0.42219847974133334  0.4117806963691075  1.0000
  C   C26       1.0  0.012667983685872955  0.415888479168461  0.6750702811855477  1.0000
  C   C27       1.0  0.010774101955055558  0.4303833015437568  0.14787220208266438  1.0000
  C   C28       1.0  0.011699093104133414  0.6603007107318433  0.4057202639857833  1.0000
  C   C29       1.0  0.011742929452477117  0.18596951018548372  0.4172222960170777  1.0000
  O   O2        1.0  0.0814310767870689  0.4309796875413747  0.20187913612373778  1.0000
  O   O3        1.0  0.08293954443537999  0.41386939800839095  0.6215327822945278  1.0000
  O   O4        1.0  0.08215620851386429  0.6112353637812542  0.4040307345427545  1.0000
  O   O5        1.0  0.08221434895953744  0.23361373254686016  0.4193810754502305  1.0000
  O   O6        1.0  0.9412256451643608  0.6126564322547223  0.4035612591833993  1.0000
  O   O7        1.0  0.9420089808059253  0.41529202691745537  0.6210632299816778  1.0000
  O   O8        1.0  0.9405005069880592  0.432402284865482  0.20140784860131516  1.0000
  O   O9        1.0  0.941283779545306  0.23503631973332428  0.4189098961342432  1.0000
