data_image0
_chemical_formula_structural       NC9NC3SH6C12H9C7F3H3Zn2C4O8
_chemical_formula_sum              "N2 C35 S1 H18 F3 Zn2 O8"
_cell_length_a       16.77567553997237
_cell_length_b       10.299137764757564
_cell_length_c       9.272721663655245
_cell_angle_alpha    85.85599579155343
_cell_angle_beta     90.90861439337802
_cell_angle_gamma    90.9119803869589

_space_group_name_H-M_alt    "P 1"
_space_group_IT_number       1

loop_
  _space_group_symop_operation_xyz
  'x, y, z'

loop_
  _atom_site_type_symbol
  _atom_site_label
  _atom_site_symmetry_multiplicity
  _atom_site_fract_x
  _atom_site_fract_y
  _atom_site_fract_z
  _atom_site_occupancy
  N   N1        1.0  0.743100900906813  0.4318874268668505  0.41664028646548346  1.0000
  C   C1        1.0  0.688593685158379  0.48145841775570625  0.46282075167444087  1.0000
  C   C2        1.0  0.6209494126716893  0.5429727375403157  0.5201271755906027  1.0000
  C   C3        1.0  0.6236312246043662  0.631615700269711  0.6256542721100864  1.0000
  C   C4        1.0  0.5481784845271834  0.6752737488938019  0.6606345884008704  1.0000
  C   C5        1.0  0.48577100169384213  0.6208179056071554  0.5822372993810783  1.0000
  C   C6        1.0  0.3993462831905791  0.6469474017843295  0.5942801316441189  1.0000
  C   C7        1.0  0.3421884934495373  0.5670173456478238  0.5295775117603714  1.0000
  C   C8        1.0  0.2606071670051319  0.5911301289303292  0.540447560312018  1.0000
  C   C9        1.0  0.2027735746403851  0.5085232216705078  0.47419620050760436  1.0000
  N   N2        1.0  0.15629244132429154  0.4421191075918105  0.4209398959604811  1.0000
  C   C10       1.0  0.23535297777973677  0.6954856152344063  0.6158412458178362  1.0000
  C   C11       1.0  0.2914165884910612  0.7755718447978877  0.680031265249887  1.0000
  C   C12       1.0  0.37284197514755985  0.7518240360993219  0.6694882492316268  1.0000
  S   S1        1.0  0.5257720281961914  0.5181405023632681  0.4699888055358505  1.0000
  H   H1        1.0  0.6782952595974151  0.6637423993118212  0.6764681622999218  1.0000
  H   H2        1.0  0.5403362878743924  0.7436024725615417  0.7422148474714587  1.0000
  H   H3        1.0  0.3606766849247331  0.48541030608257724  0.4713578139137817  1.0000
  H   H4        1.0  0.17241798095211538  0.7149928321645356  0.6248175611365332  1.0000
  H   H5        1.0  0.2717458491405195  0.8565654727114654  0.7378985811471634  1.0000
  H   H6        1.0  0.414545021801727  0.8167278702770355  0.7191733449013169  1.0000
  C   C13       1.0  0.9496245321659121  0.05560237523626199  0.4189465520555029  1.0000
  C   C14       1.0  0.9488326427408788  0.06468011481998517  0.267106086354286  1.0000
  C   C15       1.0  0.9485091572467699  0.9521523166380628  0.1899622359992399  1.0000
  C   C16       1.0  0.9489882167770973  0.8294268036681125  0.2667111846399488  1.0000
  C   C17       1.0  0.9497764924341463  0.8183944394414121  0.41864623626744635  1.0000
  C   C18       1.0  0.9500911338116306  0.9319949960689105  0.4938285580052717  1.0000
  C   C19       1.0  0.9476704722606134  0.962800558421182  0.029330015098117942  1.0000
  C   C20       1.0  0.995368888387781  0.8812809423316689  0.9522550412770845  1.0000
  C   C21       1.0  0.9944803512946482  0.8915519898720203  0.8010521104970194  1.0000
  C   C22       1.0  0.9460848908078491  0.9829660120873769  0.7252169254035157  1.0000
  C   C23       1.0  0.8984770370368059  0.06436426806060137  0.8004307080789621  1.0000
  C   C24       1.0  0.8991651091202923  0.05458315816421  0.9516325271969595  1.0000
  H   H7        1.0  0.9495688725066138  0.15953320422478545  0.20848858239221757  1.0000
  H   H8        1.0  0.9476435396273108  0.7423314424990664  0.2077983612833103  1.0000
  H   H9        1.0  0.9506997536349087  0.9242775436708822  0.6109465707341724  1.0000
  H   H10       1.0  0.9507573575048645  0.590267310800592  0.705410401108679  1.0000
  H   H11       1.0  0.03407706419636903  0.8108549404870762  0.008863114611876945  1.0000
  H   H12       1.0  0.03151549420078293  0.8287676410563128  0.7426431052951705  1.0000
  H   H13       1.0  0.945474755002862  0.990726977912789  0.6081763143134915  1.0000
  H   H14       1.0  0.8608304036349232  0.1349268938388282  0.7415368366808242  1.0000
  H   H15       1.0  0.8610448518725646  0.11753668976575371  0.007734763997825133  1.0000
  C   C25       1.0  0.947590589725352  0.4348396063942713  0.9953320384855409  1.0000
  C   C26       1.0  0.9815021534504484  0.3294458443469681  0.07844930558687446  1.0000
  C   C27       1.0  0.022403260029758797  0.2319506404861922  0.013008904393049019  1.0000
  C   C28       1.0  0.026949671375202877  0.23804401047279924  0.8619040280320904  1.0000
  C   C29       1.0  0.9925650524277055  0.34072195609171163  0.7778146066623264  1.0000
  C   C30       1.0  0.951810460352305  0.439157230509567  0.8422607106500029  1.0000
  C   C31       1.0  0.056501742340313355  0.11797197278313167  0.10375653315633371  1.0000
  F   F1        1.0  0.08335948867737011  0.15638475962808274  0.23625402234484064  1.0000
  F   F2        1.0  0.12004401000673592  0.0658238374599267  0.035319097448325294  1.0000
  F   F3        1.0  0.9979491263719518  0.023035022160648337  0.1262199484087927  1.0000
  H   H16       1.0  0.8971140127137125  0.7428681743609461  0.07090376158736378  1.0000
  H   H17       1.0  0.05640335224397397  0.16247796181329924  0.8083328590359611  1.0000
  H   H18       1.0  0.8087775829844753  0.6546763335237988  0.71939476649149  1.0000
  Zn  Zn1       1.0  0.8623390977615375  0.43483664376628095  0.41788939851355655  1.0000
  Zn  Zn2       1.0  0.03705429639847546  0.43915935582030224  0.41970263041233924  1.0000
  C   C32       1.0  0.9510099886722632  0.43316693234258263  0.6821750928636934  1.0000
  C   C33       1.0  0.948385314403976  0.4408307539269768  0.1554170967535875  1.0000
  C   C34       1.0  0.9497150387622543  0.6741811072322599  0.41295653944881106  1.0000
  C   C35       1.0  0.9496802047680856  0.19981501752024472  0.4246357270453058  1.0000
  O   O1        1.0  0.014955537483978487  0.4444762182468043  0.20983121899021318  1.0000
  O   O2        1.0  0.017044556459679505  0.4328013245298002  0.6291367569575979  1.0000
  O   O3        1.0  0.015997981698467664  0.6274233043235147  0.4117408605012167  1.0000
  O   O4        1.0  0.01600205208985361  0.24985424571783987  0.42722700670133684  1.0000
  O   O5        1.0  0.8833912824483994  0.6241417523949897  0.4103650215982066  1.0000
  O   O6        1.0  0.884437857133751  0.42952133264457576  0.6277608405513995  1.0000
  O   O7        1.0  0.8823488295636001  0.4411961722645486  0.20845356885457167  1.0000
  O   O8        1.0  0.883395344703052  0.24657419099707958  0.4258494646846005  1.0000
