data_image0
_chemical_formula_structural       NC9NC3SH6C8NH6C7F3H4Zn2C4O8
_chemical_formula_sum              "N3 C31 S1 H16 F3 Zn2 O8"
_cell_length_a       16.77567553997237
_cell_length_b       9.274263428431858
_cell_length_c       9.272721663655245
_cell_angle_alpha    85.8307011284179
_cell_angle_beta     90.90861439337802
_cell_angle_gamma    91.51050711931723

_space_group_name_H-M_alt    "P 1"
_space_group_IT_number       1

loop_
  _space_group_symop_operation_xyz
  'x, y, z'

loop_
  _atom_site_type_symbol
  _atom_site_label
  _atom_site_symmetry_multiplicity
  _atom_site_fract_x
  _atom_site_fract_y
  _atom_site_fract_z
  _atom_site_occupancy
  N   N1        1.0  0.7522834688588661  0.5905063214021669  0.4161754727442842  1.0000
  C   C1        1.0  0.6980941475089346  0.6455685929799067  0.462339846411193  1.0000
  C   C2        1.0  0.630844360937023  0.7138972287639781  0.5196263017883831  1.0000
  C   C3        1.0  0.6340946323822716  0.8123597125623143  0.625124623374453  1.0000
  C   C4        1.0  0.5589218675256421  0.8608540292340099  0.6600907675594834  1.0000
  C   C5        1.0  0.4961651641656144  0.8003657803957507  0.5817111557835053  1.0000
  C   C6        1.0  0.40990801181992625  0.8293898000673151  0.5937455059912367  1.0000
  C   C7        1.0  0.3522376376688857  0.74060540461151  0.52906883269109  1.0000
  C   C8        1.0  0.27081094437988795  0.7673893078135534  0.5399310538449155  1.0000
  C   C9        1.0  0.21244760119465791  0.6756315301258764  0.4737065095730917  1.0000
  N   N2        1.0  0.1655406241436573  0.6018714277410259  0.4204717608709241  1.0000
  C   C10       1.0  0.24622597769683577  0.8833048871568357  0.6152908638790959  1.0000
  C   C11       1.0  0.30280317434459053  0.9722627563216618  0.6794548860311365  1.0000
  C   C12       1.0  0.3840762683955427  0.9458842581619532  0.6689195789340692  1.0000
  S   S1        1.0  0.5355077295244852  0.6863141755975284  0.4694959926771256  1.0000
  H   H1        1.0  0.688964693066652  0.8480452818001633  0.6759280847203369  1.0000
  H   H2        1.0  0.5515178569595385  0.9367519419384192  0.7416488460258448  1.0000
  H   H3        1.0  0.3702024903870584  0.6499582560549693  0.4708756258039322  1.0000
  H   H4        1.0  0.1834160789332488  0.90497303736067  0.624260846840988  1.0000
  H   H5        1.0  0.2836518399961775  0.062228541880459336  0.7372959100922829  1.0000
  H   H6        1.0  0.42619553762175216  0.01797788550022217  0.7185836057738231  1.0000
  C   C13       1.0  0.9563940172239417  0.1725378819577692  0.4186038865226315  1.0000
  C   C14       1.0  0.945427622212569  0.2548689777964108  0.2867077531972065  1.0000
  C   C15       1.0  0.9422883537794167  0.18915086044853502  0.156085913225122  1.0000
  C   C16       1.0  0.950686039716537  0.03958873920222362  0.1541360428762879  1.0000
  C   C17       1.0  0.9595079706405846  0.9556891882489726  0.28512597124688877  1.0000
  C   C18       1.0  0.9614377082271226  0.019829117421056308  0.41805595971383874  1.0000
  C   C19       1.0  0.946112262846935  0.9686989453753646  0.013397322423120979  1.0000
  C   C20       1.0  0.863215857482146  0.9273060305952153  0.9804880554306465  1.0000
  N   N3        1.0  0.797787540095855  0.8946341935277557  0.9545230086324556  1.0000
  H   H7        1.0  0.026872285731316833  0.25457695628918575  0.7517813186566216  1.0000
  H   H8        1.0  0.9410077063721639  0.37135329460116195  0.28430013265833076  1.0000
  H   H9        1.0  0.934049502054771  0.25530085748343057  0.0560712429033925  1.0000
  H   H10       1.0  0.005794828046919332  0.7247996900726625  0.6442961460924725  1.0000
  H   H11       1.0  0.9829817285025297  0.8706284095427884  0.01936086560062545  1.0000
  H   H12       1.0  0.9692121978708972  0.04365214756193246  0.9239025195403926  1.0000
  C   C21       1.0  0.9567920897446953  0.5937855318429979  0.9948662664393186  1.0000
  C   C22       1.0  0.9900277725565555  0.4767166606263651  0.07801774605331802  1.0000
  C   C23       1.0  0.030303650980598285  0.3684213190112333  0.012608993372955407  1.0000
  C   C24       1.0  0.03488913857108056  0.37518968871718655  0.8615021390059577  1.0000
  C   C25       1.0  0.0011629842452647323  0.48924189597262063  0.7773793867212819  1.0000
  C   C26       1.0  0.9610396489148156  0.5985814454881391  0.8417935370334513  1.0000
  C   C27       1.0  0.06367119813408006  0.24181653983289664  0.10339362144755304  1.0000
  F   F1        1.0  0.09077528228988774  0.28448454511963495  0.23587864122676155  1.0000
  F   F2        1.0  0.12687904440172937  0.18389163782968465  0.03497311386418489  1.0000
  F   F3        1.0  0.004509759863144061  0.13636284475429172  0.12588785476326914  1.0000
  H   H13       1.0  0.9082908728091732  0.9359363010521832  0.07033799850677314  1.0000
  H   H14       1.0  0.06385822102543393  0.2912527284358147  0.8079554999663139  1.0000
  H   H15       1.0  0.004582736648577112  0.4897972764521079  0.6607599949211549  1.0000
  H   H16       1.0  0.8193888765723262  0.8379749126667116  0.7188576319028812  1.0000
  Zn  Zn1       1.0  0.871540578781808  0.593782241026654  0.41742362742905126  1.0000
  Zn  Zn2       1.0  0.046283498590416805  0.5985838062324937  0.4192354561058778  1.0000
  C   C28       1.0  0.9602007619802371  0.591927565495268  0.681709863794409  1.0000
  C   C29       1.0  0.9576252351247639  0.6004403552910054  0.15494937988438084  1.0000
  C   C30       1.0  0.9604514147459737  0.8596403489983284  0.412413073296506  1.0000
  C   C31       1.0  0.957374512799256  0.33272583729213245  0.42424624776601355  1.0000
  O   O1        1.0  0.02421883624636734  0.6044896499047718  0.20936231874457326  1.0000
  O   O2        1.0  0.02623298515695183  0.5915214570774737  0.628671646570498  1.0000
  O   O3        1.0  0.02643450401042369  0.8077028993735601  0.4112125726848319  1.0000
  O   O4        1.0  0.02401725728414661  0.3883082156781963  0.42682128388262347  1.0000
  O   O5        1.0  0.8938067604568672  0.8040578299439409  0.40983779902643125  1.0000
  O   O6        1.0  0.8936052515319551  0.5878781205066566  0.6272967949024941  1.0000
  O   O7        1.0  0.8915910936800013  0.6008462532442658  0.2079857333646873  1.0000
  O   O8        1.0  0.8913895151953185  0.3846648093111685  0.42544480662447937  1.0000
