data_image0
_chemical_formula_structural       NC9NC3OH6C7NH5C7OH5Zn2C4O8
_chemical_formula_sum              "N3 C30 O10 H16 Zn2"
_cell_length_a       15.78231758774541
_cell_length_b       10.302819778424748
_cell_length_c       9.274081674992354
_cell_angle_alpha    86.07103821472641
_cell_angle_beta     89.75780300142802
_cell_angle_gamma    89.6314472413266

_space_group_name_H-M_alt    "P 1"
_space_group_IT_number       1

loop_
  _space_group_symop_operation_xyz
  'x, y, z'

loop_
  _atom_site_type_symbol
  _atom_site_label
  _atom_site_symmetry_multiplicity
  _atom_site_fract_x
  _atom_site_fract_y
  _atom_site_fract_z
  _atom_site_occupancy
  N   N1        1.0  0.8032204825489327  0.40002616536480406  0.41281428192484104  1.0000
  C   C1        1.0  0.7545991224167685  0.31820337731078396  0.43953917552471555  1.0000
  C   C2        1.0  0.6942339225276488  0.21664141164925188  0.4727116534082245  1.0000
  C   C3        1.0  0.7137575351134215  0.08906250469330003  0.5142934980306137  1.0000
  C   C4        1.0  0.6369593231835609  0.02723344028625574  0.5345284286502048  1.0000
  C   C5        1.0  0.5752813729700257  0.12165680264688783  0.5037989197286656  1.0000
  C   C6        1.0  0.48217105961244566  0.10420018844925048  0.5095821834866006  1.0000
  C   C7        1.0  0.4285430024872581  0.21123942590571043  0.4745632720058399  1.0000
  C   C8        1.0  0.3403206381814317  0.1969254849472568  0.47931335697494043  1.0000
  C   C9        1.0  0.2859995200439884  0.3070790106426189  0.4432663997570366  1.0000
  N   N2        1.0  0.24233822510738773  0.395628222025757  0.4142878678594708  1.0000
  C   C10       1.0  0.30504486195805935  0.07541301185264349  0.5191367292664357  1.0000
  C   C11       1.0  0.3577422122670705  0.9685951140574864  0.554088075877041  1.0000
  C   C12       1.0  0.44577848288049743  0.9825158166992486  0.5494670717424148  1.0000
  O   O1        1.0  0.6118618765982516  0.23355988745451056  0.46727229179764845  1.0000
  H   H1        1.0  0.776171265098315  0.04603786474299752  0.5282599519837854  1.0000
  H   H2        1.0  0.6281163751013873  0.9255692777274374  0.5676808068497547  1.0000
  H   H3        1.0  0.4552520666523256  0.30579763359069956  0.443568386814071  1.0000
  H   H4        1.0  0.2369151307519563  0.06328982868389255  0.5231574486333526  1.0000
  H   H5        1.0  0.3303035390480124  0.8746833591498048  0.5848715340776294  1.0000
  H   H6        1.0  0.48477235623576465  0.8979085931034734  0.577160155843274  1.0000
  C   C13       1.0  0.02278336956924497  0.01657418035086055  0.4135572829334866  1.0000
  C   C14       1.0  0.972899657573825  0.00818967461006758  0.5396090874078789  1.0000
  C   C15       1.0  0.948082019494726  0.8869157239533803  0.6023210522188198  1.0000
  C   C16       1.0  0.9728997259428966  0.7728886641526419  0.539609092360917  1.0000
  C   C17       1.0  0.02278338339089858  0.7790702077391778  0.41355732582056504  1.0000
  C   C18       1.0  0.047464623772870834  0.9014257088732618  0.3511900371853418  1.0000
  C   C19       1.0  0.8969439836982289  0.8794494846602159  0.731542675004714  1.0000
  N   N3        1.0  0.855845736804318  0.8734491008046941  0.8353944723261362  1.0000
  H   H7        1.0  0.041678104693449985  0.34707245284586596  0.3658113100456471  1.0000
  H   H8        1.0  0.9532260784428214  0.09574158931499889  0.58932228166989  1.0000
  H   H9        1.0  0.9532261843086541  0.6795919838550348  0.5893222477830585  1.0000
  H   H10       1.0  0.0859331794724138  0.9070420999518477  0.25398342425533094  1.0000
  H   H11       1.0  0.04167818205437724  0.45408937236498587  0.3658114198547251  1.0000
  C   C20       1.0  0.024213341653777098  0.39440453675750836  0.9902923809481289  1.0000
  C   C21       1.0  0.09302775588444895  0.45021825155455125  0.05904938479358446  1.0000
  C   C22       1.0  0.15704386060208245  0.5156578806539649  0.9787812583668782  1.0000
  C   C23       1.0  0.1522283642277289  0.5256360537028708  0.8276423978547385  1.0000
  C   C24       1.0  0.08518948839462709  0.46906429424827883  0.7576885249156369  1.0000
  C   C25       1.0  0.021353413249976846  0.40123988741504757  0.8368221985067805  1.0000
  C   C26       1.0  0.22783395112876093  0.5740362815285709  0.05446374240411833  1.0000
  O   O2        1.0  0.2861457930064568  0.6339399056864585  0.9853196997482035  1.0000
  H   H12       1.0  0.823455929102178  0.3120783795438953  0.10098747612663363  1.0000
  H   H13       1.0  0.20074266858338985  0.5761404934745396  0.7631973397158767  1.0000
  H   H14       1.0  0.08440357130079845  0.47578010701112367  0.6406121288562387  1.0000
  H   H15       1.0  0.8875281178734999  0.340464420876722  0.5612887590794258  1.0000
  H   H16       1.0  0.2303041180346087  0.5657578547995687  0.17137922020532795  1.0000
  Zn  Zn1       1.0  0.9299403458436112  0.3987536131488398  0.4132478436698013  1.0000
  Zn  Zn2       1.0  0.11561829351336933  0.39689027313153713  0.413866088708997  1.0000
  C   C27       1.0  0.021892105355902455  0.39477578082097353  0.6768099642886243  1.0000
  C   C28       1.0  0.02366856112057314  0.4008697243757433  0.15030411631103457  1.0000
  C   C29       1.0  0.022798421658871023  0.6348959313914728  0.40781361390384796  1.0000
  C   C30       1.0  0.02276218119906236  0.16074801523311644  0.4193005433297049  1.0000
  O   O3        1.0  0.09394954126883376  0.40232670855520447  0.20424013719402412  1.0000
  O   O4        1.0  0.09253639259547736  0.3919035819080792  0.6233427621694858  1.0000
  O   O5        1.0  0.09326729952281165  0.5858036618615403  0.4061263028772246  1.0000
  O   O6        1.0  0.0932185713473066  0.20842663765233985  0.42145648820337134  1.0000
  O   O7        1.0  0.9523400046469288  0.5872172492652559  0.4056574439568686  1.0000
  O   O8        1.0  0.9516090979753917  0.39331872852114014  0.6228738263966781  1.0000
  O   O9        1.0  0.9530222525596714  0.4037417959328183  0.20376946849004018  1.0000
  O   O10       1.0  0.9522912822695923  0.20984171661657583  0.4209859275637431  1.0000
