data_image0
_chemical_formula_structural       NC9NC3OH6C6H4C9H8Zn2C4O8
_chemical_formula_sum              "N2 C31 O9 H18 Zn2"
_cell_length_a       15.78231758774541
_cell_length_b       10.681118228259553
_cell_length_c       9.275155815604963
_cell_angle_alpha    86.05281192144675
_cell_angle_beta     90.4446892459172
_cell_angle_gamma    89.63144314392761

_space_group_name_H-M_alt    "P 1"
_space_group_IT_number       1

loop_
  _space_group_symop_operation_xyz
  'x, y, z'

loop_
  _atom_site_type_symbol
  _atom_site_label
  _atom_site_symmetry_multiplicity
  _atom_site_fract_x
  _atom_site_fract_y
  _atom_site_fract_z
  _atom_site_occupancy
  N   N1        1.0  0.7920365210680571  0.35098900597605365  0.41292110928273423  1.0000
  C   C1        1.0  0.7436034782137352  0.2720549445378256  0.4396442037527113  1.0000
  C   C2        1.0  0.6834720285810746  0.17407859052943556  0.4728144484525294  1.0000
  C   C3        1.0  0.7032886481377875  0.05100384527006007  0.5143934937677295  1.0000
  C   C4        1.0  0.6266330218793438  0.9913576216972617  0.5346270621649809  1.0000
  C   C5        1.0  0.564738535803036  0.08244735997759145  0.5038996219677679  1.0000
  C   C6        1.0  0.47166897427005655  0.06560701761521459  0.5096824963958404  1.0000
  C   C7        1.0  0.41779415598050346  0.16886728998502168  0.47466594240022736  1.0000
  C   C8        1.0  0.32960526319372113  0.15505867213868973  0.4794157075933161  1.0000
  C   C9        1.0  0.2750301397570554  0.2613232875767548  0.4433711770687682  1.0000
  N   N2        1.0  0.2311646472618704  0.34674631775295706  0.414394596015746  1.0000
  C   C10       1.0  0.29461010281343164  0.03783611027834555  0.5192363989630966  1.0000
  C   C11       1.0  0.34755373818947866  0.934789361612407  0.5541853926371416  1.0000
  C   C12       1.0  0.43555744685339237  0.9482186240698137  0.5495646995887693  1.0000
  O   O1        1.0  0.6010616541135961  0.19039973521935738  0.46737545302355427  1.0000
  H   H1        1.0  0.7658007929174435  0.009498205862534134  0.5283590074922402  1.0000
  H   H2        1.0  0.6180236824286088  0.893282697292678  0.5677772085328889  1.0000
  H   H3        1.0  0.44428481433739625  0.26008718937480513  0.4436731437935912  1.0000
  H   H4        1.0  0.2265087036450318  0.026140911013158512  0.5232568476548927  1.0000
  H   H5        1.0  0.32033198095584986  0.8441930922950769  0.584966778485936  1.0000
  H   H6        1.0  0.47474645984389185  0.8665984103800263  0.5772559193819569  1.0000
  C   C13       1.0  0.011604661437101264  0.9811176729917868  0.41366405778404824  1.0000
  C   C14       1.0  0.04922178238956529  0.9070970218927384  0.5282488646402428  1.0000
  C   C15       1.0  0.04922176919321372  0.7762147833516153  0.5282487987029851  1.0000
  C   C16       1.0  0.011604647439315214  0.7166080775498256  0.4136641200401179  1.0000
  C   C17       1.0  0.974018665464247  0.7906177354372605  0.2991740032771057  1.0000
  C   C18       1.0  0.9740186785910331  0.9215099938467726  0.2991740618158236  1.0000
  H   H7        1.0  0.07870790658022786  0.9502587762194987  0.6180657996048011  1.0000
  H   H8        1.0  0.07870780230902885  0.72175474844077  0.61806577379643  1.0000
  H   H9        1.0  0.9445286966323302  0.747501473694334  0.20934534101321733  1.0000
  H   H10       1.0  0.9445286743787376  0.9759259128555834  0.2093453292194127  1.0000
  C   C19       1.0  0.01005213523074166  0.34571243270496926  0.9904276441583281  1.0000
  C   C20       1.0  0.9437658368454802  0.40737325501633403  0.05802009986533086  1.0000
  C   C21       1.0  0.8831550165463523  0.4773021125588411  0.9765319596965183  1.0000
  C   C22       1.0  0.8877064668265918  0.48703306649684674  0.825965435111804  1.0000
  C   C23       1.0  0.9522876340677562  0.4247158769577659  0.7566588930972159  1.0000
  C   C24       1.0  0.013157145906966148  0.35201324859018174  0.8369004888744604  1.0000
  C   C25       1.0  0.8253828537550019  0.5599042160397389  0.7421589296048294  1.0000
  C   C26       1.0  0.7731980552625198  0.6209238260169325  0.6719557855664289  1.0000
  C   C27       1.0  0.7098811860681501  0.6949608000716807  0.5867646655796945  1.0000
  H   H11       1.0  0.20672678407834155  0.24277412626502226  0.10404541482222629  1.0000
  H   H12       1.0  0.9399590233351804  0.4039386154256231  0.17479886415812995  1.0000
  H   H13       1.0  0.8331523130774687  0.5248544835539302  0.031177212323852507  1.0000
  H   H14       1.0  0.9538532207127267  0.4305894925218683  0.6395178509015816  1.0000
  H   H15       1.0  0.14438616159880846  0.27822329337508855  0.5637584273500948  1.0000
  H   H16       1.0  0.7270997093154341  0.6983925541346807  0.4708234537216707  1.0000
  H   H17       1.0  0.6467733072973442  0.6509760099217627  0.6015791881938348  1.0000
  H   H18       1.0  0.7077367589130833  0.7916800091004224  0.6232622046312128  1.0000
  Zn  Zn1       1.0  0.9187594394581237  0.3497613746067594  0.41335464184051274  1.0000
  Zn  Zn2       1.0  0.10444174359746244  0.3479638158650329  0.41397284525941225  1.0000
  C   C28       1.0  0.012568355099553003  0.34583338512458817  0.6768990245996862  1.0000
  C   C29       1.0  0.010634856119871467  0.3518933668743829  0.150428610711135  1.0000
  C   C30       1.0  0.011579212668547223  0.5775420006626522  0.40792077934182025  1.0000
  C   C31       1.0  0.011623935472397698  0.12018324793844037  0.419406932597727  1.0000
  O   O2        1.0  0.08129588930308329  0.35328011725638153  0.20436100168835858  1.0000
  O   O3        1.0  0.08283589284018328  0.3430813814259978  0.6234354208253889  1.0000
  O   O4        1.0  0.08203620340679896  0.5301890391795527  0.4062335815514271  1.0000
  O   O5        1.0  0.08209551497927214  0.1661724682702781  0.42156273268669464  1.0000
  O   O6        1.0  0.9411056047120284  0.5315527228162396  0.4057647541946867  1.0000
  O   O7        1.0  0.9419052938596058  0.3444465690752888  0.6229665166213796  1.0000
  O   O8        1.0  0.9403652840225591  0.354645248366801  0.2038903646697996  1.0000
  O   O9        1.0  0.9411649100916581  0.16753759122797132  0.4210922037252185  1.0000
