data_image0
_chemical_formula_structural       NC7OC8NH10C6H6C12H8Zn2C4O8
_chemical_formula_sum              "N2 C37 O9 H24 Zn2"
_cell_length_a       17.484556032080143
_cell_length_b       10.681118228259551
_cell_length_c       13.024585202197207
_cell_angle_alpha    85.80459198147678
_cell_angle_beta     94.64658029263958
_cell_angle_gamma    90.05362867003012

_space_group_name_H-M_alt    "P 1"
_space_group_IT_number       1

loop_
  _space_group_symop_operation_xyz
  'x, y, z'

loop_
  _atom_site_type_symbol
  _atom_site_label
  _atom_site_symmetry_multiplicity
  _atom_site_fract_x
  _atom_site_fract_y
  _atom_site_fract_z
  _atom_site_occupancy
  N   N1        1.0  0.661851316293869  0.3650258653772935  0.8749630162812119  1.0000
  C   C1        1.0  0.6160087563379787  0.2884807608026969  0.8877751770804165  1.0000
  C   C2        1.0  0.5589852532442259  0.1932700272262848  0.9037121256003184  1.0000
  C   C3        1.0  0.5512761460821464  0.09454909283446318  0.8386896445621065  1.0000
  C   C4        1.0  0.4958567179519902  0.0021366216904006303  0.8541972121189956  1.0000
  C   C5        1.0  0.4475237026373702  0.007282493946920941  0.9344459878970026  1.0000
  C   C6        1.0  0.45570811344154744  0.10658601406193835  0.999931891960194  1.0000
  C   C7        1.0  0.5111319055926697  0.19902254337200562  0.9843738950347221  1.0000
  O   O1        1.0  0.39268647023705194  0.9122583191463917  0.9462421094575701  1.0000
  C   C8        1.0  0.33540054702614397  0.9085995741113758  0.018572417596466  1.0000
  C   C9        1.0  0.2755187019355952  0.008794248700096255  0.9887631571267688  1.0000
  C   C10       1.0  0.25438910382147095  0.09075130068948645  0.06127168053914789  1.0000
  C   C11       1.0  0.19836150516730933  0.18303166081149058  0.0333083466841716  1.0000
  C   C12       1.0  0.162571691482121  0.19367519526558863  0.9328906582960448  1.0000
  C   C13       1.0  0.18286815723035843  0.11140480550086806  0.8605873668584285  1.0000
  C   C14       1.0  0.23889640613964674  0.019118556893644476  0.8884705532847594  1.0000
  C   C15       1.0  0.1049106858770034  0.2887068866269251  0.9041534188313718  1.0000
  N   N2        1.0  0.058555035941101514  0.36510985566711973  0.8810493004283657  1.0000
  H   H1        1.0  0.5880265588400054  0.08901636156292402  0.7760585606553079  1.0000
  H   H2        1.0  0.4902628529917692  0.9262274957372182  0.803418602800913  1.0000
  H   H3        1.0  0.4199060656907642  0.11320719000955456  0.06313868694854452  1.0000
  H   H4        1.0  0.5167100181494574  0.27486846835019363  0.03531315963868964  1.0000
  H   H5        1.0  0.30683697790972425  0.8157617975744239  0.018101514187252702  1.0000
  H   H6        1.0  0.3627354594836386  0.9166058246207752  0.09788254906651173  1.0000
  H   H7        1.0  0.2813870982033129  0.08359420537716877  0.13930785354577668  1.0000
  H   H8        1.0  0.1829182055528258  0.24592362982541036  0.08996497167502848  1.0000
  H   H9        1.0  0.155362000945692  0.11850406603993702  0.7827824767785859  1.0000
  H   H10       1.0  0.25389350005770106  0.9558776780311278  0.8318688601753284  1.0000
  C   C16       1.0  0.8602070803731209  0.9973178854876024  0.878010662524617  1.0000
  C   C17       1.0  0.8980538744392236  0.9232191031248568  0.9603233411049846  1.0000
  C   C18       1.0  0.8980538602933692  0.7923368647120647  0.9603232938354218  1.0000
  C   C19       1.0  0.860207069830888  0.7328082896634456  0.8780107068519235  1.0000
  C   C20       1.0  0.8223915994019362  0.8068960147727395  0.7957660500727576  1.0000
  C   C21       1.0  0.8223916132351945  0.9377882730822424  0.7957660920545788  1.0000
  H   H11       1.0  0.8219335424767842  0.30339484778765824  0.7947706806831398  1.0000
  H   H12       1.0  0.9277200209714447  0.9663196151419774  0.02484387210534101  1.0000
  H   H13       1.0  0.9277199259145126  0.7378155864356951  0.02484385246767896  1.0000
  H   H14       1.0  0.7927215842076164  0.7638410033883791  0.7312370947580649  1.0000
  H   H15       1.0  0.7927215637083408  0.9922654423763146  0.7312370860752193  1.0000
  H   H16       1.0  0.8219338098510324  0.4414654955702585  0.7947704063890166  1.0000
  C   C22       1.0  0.8445171473094497  0.36355674892935913  0.5755510826148487  1.0000
  C   C23       1.0  0.8275947451138681  0.46362450415227574  0.5008616706732619  1.0000
  C   C24       1.0  0.8537482854764702  0.46171273088905984  0.4023828248417536  1.0000
  C   C25       1.0  0.896761567355531  0.3593975470502373  0.3765954966124587  1.0000
  C   C26       1.0  0.9144111012097824  0.26004249280806735  0.45122287844920494  1.0000
  C   C27       1.0  0.8882960973604322  0.2618491790785995  0.5497455791977237  1.0000
  C   C28       1.0  0.9255484309481034  0.35824785204258214  0.27283707993166884  1.0000
  C   C29       1.0  0.005382379647326248  0.35418189893424445  0.26637969837613373  1.0000
  C   C30       1.0  0.036153633087292025  0.36082917797565417  0.17062746974068577  1.0000
  C   C31       1.0  0.9877376087116823  0.3718865730946898  0.08003607414662817  1.0000
  C   C32       1.0  0.9082969663087739  0.374781718939567  0.08475686483271905  1.0000
  C   C33       1.0  0.8758969632613239  0.36656940348965505  0.1804702537528125  1.0000
  H   H17       1.0  0.8154788294483416  0.2657667082954595  0.8250479867344757  1.0000
  H   H18       1.0  0.7942852898910118  0.5435593258430547  0.5185334199200962  1.0000
  H   H19       1.0  0.8405704296473976  0.5401082945308078  0.3461832415791226  1.0000
  H   H20       1.0  0.9480414864954027  0.18075481487508682  0.43287469168001436  1.0000
  H   H21       1.0  0.9024634305545282  0.1835868030507193  0.6056421968100015  1.0000
  H   H22       1.0  0.04405387754178623  0.34807932321469415  0.3359198545409224  1.0000
  H   H23       1.0  0.09772783257681694  0.3583579950696698  0.16669095776842974  1.0000
  H   H24       1.0  0.6874483135378994  0.41017486159036487  0.09304450738337436  1.0000
  Zn  Zn1       1.0  0.7763317523655906  0.3650467864361231  0.8767253428026931  1.0000
  Zn  Zn2       1.0  0.944075034660152  0.36507875118369015  0.8792954398471058  1.0000
  C   C34       1.0  0.8699638219595167  0.36101101648731637  0.06612757696107296  1.0000
  C   C35       1.0  0.8504448020617155  0.3691161020884994  0.6898933348464762  1.0000
  C   C36       1.0  0.8599902120790244  0.5937644802674835  0.8739062641720294  1.0000
  C   C37       1.0  0.8604183575517419  0.1363611339876742  0.8821147016708523  1.0000
  O   O2        1.0  0.9160918785758417  0.3709885388347861  0.7292429776586412  1.0000
  O   O3        1.0  0.931630000011217  0.35916189403219223  0.028728281844277236  1.0000
  O   O4        1.0  0.9235753813190439  0.5471132647741608  0.8735081986213038  1.0000
  O   O5        1.0  0.9241464360224977  0.183037176655765  0.8844629827778094  1.0000
  O   O6        1.0  0.7962602937604141  0.547088360954477  0.8715577989895233  1.0000
  O   O7        1.0  0.8043149096002228  0.3591384945235949  0.02677782729469957  1.0000
  O   O8        1.0  0.7887767239780729  0.37096508951916307  0.72729128477968  1.0000
  O   O9        1.0  0.7968312854274155  0.18301371876762348  0.8825113671201887  1.0000
