data_image0
_chemical_formula_structural       NC7NC5NC3OH9C7ClCClC6H10C7N2C6H12Zn2C4O8
_chemical_formula_sum              "N5 C46 O9 H31 Cl2 Zn2"
_cell_length_a       18.75665189421684
_cell_length_b       17.25489619101054
_cell_length_c       17.181329709859032
_cell_angle_alpha    85.452840484275
_cell_angle_beta     90.69002143755165
_cell_angle_gamma    90.39637954778651

_space_group_name_H-M_alt    "P 1"
_space_group_IT_number       1

loop_
  _space_group_symop_operation_xyz
  'x, y, z'

loop_
  _atom_site_type_symbol
  _atom_site_label
  _atom_site_symmetry_multiplicity
  _atom_site_fract_x
  _atom_site_fract_y
  _atom_site_fract_z
  _atom_site_occupancy
  N   N1        1.0  0.667132580201745  0.8393270354081915  0.13068075262634649  1.0000
  C   C1        1.0  0.6141988670401334  0.8257014055125078  0.16302657233160966  1.0000
  C   C2        1.0  0.5483556453175306  0.8087533750516313  0.20325998248954513  1.0000
  C   C3        1.0  0.49050466944590815  0.7773431891523965  0.16397554097407274  1.0000
  C   C4        1.0  0.4265279711231414  0.7609202256551082  0.20299537444330285  1.0000
  C   C5        1.0  0.4196262190364877  0.7756347184062995  0.2819155320686879  1.0000
  C   C6        1.0  0.47803568652038564  0.8073309726543044  0.3208692231623229  1.0000
  C   C7        1.0  0.541975382417441  0.8237399091839054  0.28174452541665673  1.0000
  N   N2        1.0  0.3533762502161802  0.7589857191668933  0.3219399190152278  1.0000
  C   C8        1.0  0.2863312854996699  0.7759611151740051  0.28238504333981695  1.0000
  C   C9        1.0  0.2755623597401863  0.8485047866278019  0.24086811032123667  1.0000
  C   C10       1.0  0.21097181665941842  0.8649074685708389  0.2017523860602859  1.0000
  C   C11       1.0  0.1565281753031391  0.8088975744101287  0.20350320074657802  1.0000
  C   C12       1.0  0.0900548318719259  0.8257812729730559  0.1631614232374965  1.0000
  N   N3        1.0  0.03661374816083511  0.8393550284617479  0.13072800355260072  1.0000
  C   C13       1.0  0.166977607078145  0.7363485910049767  0.24442663744535623  1.0000
  C   C14       1.0  0.23155359297707517  0.71989056118295  0.2835742857515632  1.0000
  C   C15       1.0  0.3548359568477698  0.7251638644929747  0.4012745713526311  1.0000
  O   O1        1.0  0.2992788322947532  0.7216179754983411  0.44194434933928095  1.0000
  H   H1        1.0  0.4948604170015491  0.7654712334947225  0.10323635680914256  1.0000
  H   H2        1.0  0.3824809954827024  0.7361760421149574  0.1718358223116535  1.0000
  H   H3        1.0  0.4738421095348177  0.820287414127671  0.3812571277569202  1.0000
  H   H4        1.0  0.5863347709471375  0.8483143003250568  0.31263394556270496  1.0000
  H   H5        1.0  0.31714853480007  0.8924199695441098  0.2392200877824248  1.0000
  H   H6        1.0  0.20350367218912588  0.9212034648941211  0.1701882117851674  1.0000
  H   H7        1.0  0.1253343630967488  0.6924469033899766  0.2458587616764818  1.0000
  H   H8        1.0  0.23919149082476018  0.663166197963687  0.3140728022075232  1.0000
  H   H9        1.0  0.4042095236510879  0.702988855850315  0.4273092840995434  1.0000
  C   C16       1.0  0.8504703784439381  0.6114690009702135  0.1337845974182793  1.0000
  C   C17       1.0  0.883599200258182  0.5692601403407556  0.19749104722575106  1.0000
  C   C18       1.0  0.8801769436363328  0.4880577126454149  0.20492652266621197  1.0000
  C   C19       1.0  0.8442494889608807  0.4476282494121689  0.14852851449789295  1.0000
  C   C20       1.0  0.810270342265801  0.48957700968893103  0.08545253701181277  1.0000
  C   C21       1.0  0.8136337301353121  0.5707750084104213  0.07793536930338518  1.0000
  C   C22       1.0  0.8396976186616218  0.361894686664296  0.1580224512117545  1.0000
  Cl  Cl1       1.0  0.7984935244920186  0.3210432927500327  0.24369003938788905  1.0000
  C   C23       1.0  0.8640935951260696  0.3167806925598247  0.10345980529167265  1.0000
  Cl  Cl2       1.0  0.9052977416376289  0.3576320334159075  0.01779215846524884  1.0000
  C   C24       1.0  0.8595408116007438  0.23104724618375122  0.11295304142852602  1.0000
  C   C25       1.0  0.8935200382883285  0.1890980917585908  0.17602679741857896  1.0000
  C   C26       1.0  0.8901501790083411  0.10790318823696567  0.1835304851014895  1.0000
  C   C27       1.0  0.8532828481653849  0.0672071333425279  0.12763094852188916  1.0000
  C   C28       1.0  0.8201820330646066  0.109412777678294  0.06397694328609349  1.0000
  C   C29       1.0  0.8236114824921924  0.19061815538028476  0.05655404163611189  1.0000
  H   H10       1.0  0.8229455828437919  0.797550759095756  0.05626040654340892  1.0000
  H   H11       1.0  0.9121072551911328  0.5989458865090745  0.24167136163628541  1.0000
  H   H12       1.0  0.9060014402725889  0.4566578156398578  0.25447623618888415  1.0000
  H   H13       1.0  0.7807799998071614  0.459416358759338  0.04232083437221934  1.0000
  H   H14       1.0  0.7871424127061111  0.601611005231614  0.028534944724842637  1.0000
  H   H15       1.0  0.9230118692334945  0.21925317403732864  0.21916133654281056  1.0000
  H   H16       1.0  0.9166356217594  0.07703379197745042  0.2329248529690775  1.0000
  H   H17       1.0  0.7916698010602731  0.0797607338088176  0.019785161394453184  1.0000
  H   H18       1.0  0.7977878496155424  0.222023626522207  0.007006982861068821  1.0000
  H   H19       1.0  0.8101315830756115  0.8826460070814419  0.08425078799268448  1.0000
  C   C30       1.0  0.8493654769892405  0.8366870606429212  0.9023012218583581  1.0000
  C   C31       1.0  0.9036220291518436  0.8418592134584048  0.8464668183715467  1.0000
  C   C32       1.0  0.8871365756703671  0.8396908729267046  0.767109713357798  1.0000
  C   C33       1.0  0.8161177264336686  0.832003429845087  0.7418871748501752  1.0000
  C   C34       1.0  0.761764118584981  0.8271878987572492  0.7977428518495604  1.0000
  C   C35       1.0  0.7782373362242498  0.8294271314586501  0.8771053674626716  1.0000
  C   C36       1.0  0.7995266599288164  0.8300709092798414  0.6573220514143987  1.0000
  N   N4        1.0  0.7466227792706096  0.788717390953875  0.6336106483156922  1.0000
  N   N5        1.0  0.8412493382564606  0.8765813543102524  0.6013168592431712  1.0000
  C   C37       1.0  0.8444165774172244  0.8640350023615743  0.5196616171620148  1.0000
  C   C38       1.0  0.8412151200133399  0.7888500301654857  0.4937410350912472  1.0000
  C   C39       1.0  0.8457907186259783  0.7779770923611179  0.4141897665333787  1.0000
  C   C40       1.0  0.8543877456877932  0.8419891105395532  0.35911434651868723  1.0000
  C   C41       1.0  0.8587957963209897  0.916977123860246  0.3853388564513105  1.0000
  C   C42       1.0  0.854265294268013  0.9277378438863051  0.4649104627242644  1.0000
  H   H20       1.0  0.9503586357438301  0.8480590920207155  0.06793440411391638  1.0000
  H   H21       1.0  0.9589360496194275  0.8474835187742132  0.864010085345813  1.0000
  H   H22       1.0  0.9301436667829311  0.8431321957891829  0.7254530130920802  1.0000
  H   H23       1.0  0.7063425932323074  0.8230249085112282  0.7802022992400113  1.0000
  H   H24       1.0  0.7351830860467062  0.8257797064996001  0.9186926955835639  1.0000
  H   H25       1.0  0.7147143608483703  0.7536167709539205  0.6714579232793174  1.0000
  H   H26       1.0  0.8674375199973811  0.9254647810700515  0.620282717623384  1.0000
  H   H27       1.0  0.836455781433254  0.7383682997661402  0.5349474825527039  1.0000
  H   H28       1.0  0.8430402898677022  0.7193882913704106  0.395900010448202  1.0000
  H   H29       1.0  0.8658553987435081  0.9674206608810483  0.344450076213376  1.0000
  H   H30       1.0  0.8579067549041297  0.9859916738348914  0.48394784431084137  1.0000
  H   H31       1.0  0.8713546408182825  0.887516044562342  0.16296473811825862  1.0000
  Zn  Zn1       1.0  0.7737569106919656  0.8393330820532793  0.13069890846463184  1.0000
  Zn  Zn2       1.0  0.9299894701437543  0.8393426845049595  0.13071630648834276  1.0000
  C   C43       1.0  0.8534177530003497  0.837895558778551  0.27280862486646074  1.0000
  C   C44       1.0  0.8503303407715563  0.8407811878635378  0.9886066533974842  1.0000
  C   C45       1.0  0.8527134750835788  0.9810269590070662  0.12569466251234063  1.0000
  C   C46       1.0  0.8510345600795711  0.6976488558153685  0.13572066980193487  1.0000
  O   O2        1.0  0.9099435790785079  0.8421554730976505  0.01757819280193873  1.0000
  O   O3        1.0  0.9123814062677648  0.8365279735895632  0.2438500741627453  1.0000
  O   O4        1.0  0.911811902584727  0.9521083987554861  0.12505449772253674  1.0000
  O   O5        1.0  0.9105130288430473  0.7265750528025782  0.13637371084236438  1.0000
  O   O6        1.0  0.793233298678128  0.9521007137531814  0.12504150410057036  1.0000
  O   O7        1.0  0.7938028076553769  0.8365212204044324  0.24383702648040897  1.0000
  O   O8        1.0  0.7913649700655941  0.8421486820178213  0.017564210342536524  1.0000
  O   O9        1.0  0.7919344204340871  0.7265682568494194  0.13635978677270566  1.0000
