data_image0
_chemical_formula_structural       NC9NC3OCH8C12SCH12C13F3H9Zn2C4O8
_chemical_formula_sum              "N2 C43 O9 H29 S1 F3 Zn2"
_cell_length_a       17.728193572023454
_cell_length_b       10.299776766347529
_cell_length_c       10.2985328690268
_cell_angle_alpha    85.58005012136333
_cell_angle_beta     90.71056303588647
_cell_angle_gamma    88.43488659094776

_space_group_name_H-M_alt    "P 1"
_space_group_IT_number       1

loop_
  _space_group_symop_operation_xyz
  'x, y, z'

loop_
  _atom_site_type_symbol
  _atom_site_label
  _atom_site_symmetry_multiplicity
  _atom_site_fract_x
  _atom_site_fract_y
  _atom_site_fract_z
  _atom_site_occupancy
  N   N1        1.0  0.7102616963192677  0.3864884945257373  0.585117210406878  1.0000
  C   C1        1.0  0.6496542153475151  0.34906456748125114  0.598122195995461  1.0000
  C   C2        1.0  0.5742062293149638  0.30254163760119246  0.6143080689004201  1.0000
  C   C3        1.0  0.5623224949096682  0.17450697790964975  0.6237246436391635  1.0000
  C   C4        1.0  0.4856183100734102  0.12506019540800506  0.6386748015138726  1.0000
  C   C5        1.0  0.4274620411187202  0.20773490678888074  0.6561490854588368  1.0000
  C   C6        1.0  0.3494194800166263  0.16269367632414664  0.6778835270524506  1.0000
  C   C7        1.0  0.28806670628294395  0.24815135563441706  0.6424219823173638  1.0000
  C   C8        1.0  0.21379736198142948  0.20885483367435764  0.662570296185651  1.0000
  C   C9        1.0  0.15146543582962682  0.29684869099445965  0.6250343203410558  1.0000
  N   N2        1.0  0.10136397780962865  0.3675872265853698  0.5948589439557039  1.0000
  C   C10       1.0  0.200249402556  0.08398109529231812  0.7192343242185244  1.0000
  C   C11       1.0  0.2607035554155067  0.998841386061778  0.7561045595363611  1.0000
  C   C12       1.0  0.3348693271703402  0.03764832218246528  0.7360858228690874  1.0000
  O   O1        1.0  0.4408036972911084  0.3415196281178733  0.6548584151575501  1.0000
  C   C13       1.0  0.5085190219099686  0.3988852730900643  0.606247008572977  1.0000
  H   H1        1.0  0.6092570851385404  0.10504589429581655  0.6216207452382054  1.0000
  H   H2        1.0  0.4779771440593378  0.02141078302078459  0.6366882660485018  1.0000
  H   H3        1.0  0.2979444917528215  0.3449631550147071  0.5979953177522108  1.0000
  H   H4        1.0  0.1430392183703985  0.05269772643758787  0.7353746456778969  1.0000
  H   H5        1.0  0.2500890256776704  0.9026885875275852  0.800992422372399  1.0000
  H   H6        1.0  0.3804096436735721  0.9704276813863447  0.7685061941727793  1.0000
  H   H7        1.0  0.4990395233746991  0.43478388268742113  0.5027136246282939  1.0000
  H   H8        1.0  0.5213950942366943  0.48328766798963985  0.6628370679956248  1.0000
  C   C14       1.0  0.905887618881827  0.9956691153161987  0.5899883474120937  1.0000
  C   C15       1.0  0.910430183465525  0.9839306885390248  0.7266248098748536  1.0000
  C   C16       1.0  0.9126592798903758  0.8608476263250119  0.7958631421584821  1.0000
  C   C17       1.0  0.9102858830282126  0.748649890699611  0.7266364069576361  1.0000
  C   C18       1.0  0.9057453339120114  0.7583962723269205  0.589999245263163  1.0000
  C   C19       1.0  0.9035711941496823  0.8823437651096608  0.5224400615710381  1.0000
  C   C20       1.0  0.9174564841201819  0.8494940033279739  0.9404088954760293  1.0000
  C   C21       1.0  0.8742701249035151  0.7581439464204002  0.013380990515052928  1.0000
  C   C22       1.0  0.8788075199875667  0.7476922179887764  0.149412693445251  1.0000
  C   C23       1.0  0.9263432199043952  0.8283216338498146  0.21427441417157464  1.0000
  C   C24       1.0  0.9697097478624991  0.9190896279769998  0.1426799664266667  1.0000
  C   C25       1.0  0.9652830101669364  0.929885894032977  0.006640604074523496  1.0000
  S   S1        1.0  0.9322485414230337  0.8144460688071717  0.3888238772993615  1.0000
  C   C26       1.0  0.8564163134067991  0.9341788562940541  0.4064650790335497  1.0000
  H   H9        1.0  0.9041863850371957  0.3275940358926337  0.5379243922897852  1.0000
  H   H10       1.0  0.9112045523111922  0.07074097670634226  0.7796060838356141  1.0000
  H   H11       1.0  0.9130279381556071  0.6535202149588135  0.7794705429556733  1.0000
  H   H12       1.0  0.9000673146923396  0.8906309490322918  0.41703085339404083  1.0000
  H   H13       1.0  0.9039775025081447  0.43465813875232867  0.5379382973872102  1.0000
  H   H14       1.0  0.8362782315102719  0.6960011493564571  0.9653172934654399  1.0000
  H   H15       1.0  0.8450706322673762  0.6772778867473472  0.20429770286402613  1.0000
  H   H16       1.0  0.0068985527260374616  0.9813276117223544  0.19231270397342226  1.0000
  H   H17       1.0  0.9999724456362625  0.9998856836812345  0.9531924613215845  1.0000
  H   H18       1.0  0.8715207908949311  0.029763231092619243  0.35796027728944413  1.0000
  H   H19       1.0  0.8476777487157292  0.9453136513180623  0.5115339567814358  1.0000
  H   H20       1.0  0.8033111516920429  0.9011995908630339  0.36301731899309897  1.0000
  C   C27       1.0  0.9057947969048403  0.37691180085267656  0.2085957603844062  1.0000
  C   C28       1.0  0.9814742675581143  0.33236341177769124  0.21269315382327283  1.0000
  C   C29       1.0  0.019821600109336764  0.30990907564583003  0.09759848007299166  1.0000
  C   C30       1.0  0.9815187716483511  0.3326168750963268  0.9773935906609789  1.0000
  C   C31       1.0  0.9058381272441365  0.37715361618492005  0.9713918185405483  1.0000
  C   C32       1.0  0.8684594502210619  0.39901149388171464  0.087502306866031  1.0000
  C   C33       1.0  0.09983282008998029  0.26282299308139767  0.10286483891130982  1.0000
  C   C34       1.0  0.15193096505766746  0.3149050739479784  0.012621890429172385  1.0000
  C   C35       1.0  0.22723223074334878  0.2706928781679723  0.017599727775958973  1.0000
  C   C36       1.0  0.251805914644194  0.1721102116337192  0.1116814847400971  1.0000
  C   C37       1.0  0.20014426473485436  0.12182606194837042  0.20351266693611514  1.0000
  C   C38       1.0  0.12484790530496359  0.166071075245277  0.1986458734020231  1.0000
  C   C39       1.0  0.3336337247109479  0.12786949624350652  0.12000245106225305  1.0000
  F   F1        1.0  0.3723206950427296  0.20531356503723552  0.20045226381851336  1.0000
  F   F2        1.0  0.36577045175313816  0.13748943863401017  0.9979459279985439  1.0000
  F   F3        1.0  0.340646470372886  0.9994108066077048  0.17006079536957186  1.0000
  H   H21       1.0  0.7629324289189683  0.46190326204438553  0.4081187336507846  1.0000
  H   H22       1.0  0.011030023702864435  0.3167756410187621  0.305508077493887  1.0000
  H   H23       1.0  0.010504478864977735  0.3138347084250324  0.8884845719168232  1.0000
  H   H24       1.0  0.8101315404919393  0.43334058094043404  0.08361123437537565  1.0000
  H   H25       1.0  0.762691011163054  0.4605753197369573  0.7527784235489938  1.0000
  H   H26       1.0  0.134719878077872  0.39150031925811923  0.9394653351881095  1.0000
  H   H27       1.0  0.26634854804872177  0.31402827550289825  0.9480896247854571  1.0000
  H   H28       1.0  0.21795814560960647  0.04809319006978474  0.27912716957099515  1.0000
  H   H29       1.0  0.08600321969764593  0.12367656722320564  0.26918243736823966  1.0000
  Zn  Zn1       1.0  0.8231253790197326  0.3810305289143172  0.5879359645140845  1.0000
  Zn  Zn2       1.0  0.9885003232876666  0.37303459185828564  0.592050828177378  1.0000
  C   C40       1.0  0.9058292205925498  0.371934298521888  0.8272069067150968  1.0000
  C   C41       1.0  0.9057982873056066  0.3821323735938588  0.3527800584100931  1.0000
  C   C42       1.0  0.9057680302151921  0.6142231581121171  0.5848215033151227  1.0000
  C   C43       1.0  0.90585942154711  0.13984195645284658  0.5951655296276197  1.0000
  O   O2        1.0  0.9685583892640186  0.3808443633183748  0.40273119520198725  1.0000
  O   O3        1.0  0.9685848749793212  0.3671525977450931  0.7803784823436388  1.0000
  O   O4        1.0  0.9685346170320788  0.5628039573585115  0.5846505331494642  1.0000
  O   O5        1.0  0.9686085907727291  0.18519301569277308  0.5984590456100696  1.0000
  O   O6        1.0  0.8430170551003174  0.568872107809862  0.5815277456703605  1.0000
  O   O7        1.0  0.8430673127490613  0.3732223084772581  0.7772556256359495  1.0000
  O   O8        1.0  0.8430408270036848  0.3869140282972101  0.3996067769750344  1.0000
  O   O9        1.0  0.8430910285165742  0.1912626714138242  0.5953347247581771  1.0000
