data_image0
_chemical_formula_structural       NC5NC3BrH3C7NH5C7F3H5Zn2C4O8
_chemical_formula_sum              "N3 C26 Br1 H13 F3 Zn2 O8"
_cell_length_a       13.839083392302014
_cell_length_b       9.275154477615127
_cell_length_c       10.299327507215196
_cell_angle_alpha    85.77882767837892
_cell_angle_beta     89.98220145889688
_cell_angle_gamma    89.45968127068964

_space_group_name_H-M_alt    "P 1"
_space_group_IT_number       1

loop_
  _space_group_symop_operation_xyz
  'x, y, z'

loop_
  _atom_site_type_symbol
  _atom_site_label
  _atom_site_symmetry_multiplicity
  _atom_site_fract_x
  _atom_site_fract_y
  _atom_site_fract_z
  _atom_site_occupancy
  N   N1        1.0  0.8997900811054971  0.578717060632298  0.573062002208871  1.0000
  C   C1        1.0  0.8282084283582846  0.5150838616349857  0.5750550284690803  1.0000
  C   C2        1.0  0.739022865871467  0.4359021609763496  0.5775349001311023  1.0000
  C   C3        1.0  0.6509623690644372  0.5120921491327615  0.5751489001302514  1.0000
  C   C4        1.0  0.5634099554197923  0.43737469029886095  0.5774887316931148  1.0000
  C   C5        1.0  0.4731314845872602  0.5159157655724238  0.5750289590649451  1.0000
  N   N2        1.0  0.40055928231634513  0.5790566327837988  0.5730513171673524  1.0000
  C   C6        1.0  0.5638542659788298  0.28615578135928565  0.5822243603820407  1.0000
  C   C7        1.0  0.6514705190356029  0.2098445414634269  0.5846140752696127  1.0000
  C   C8        1.0  0.739223683889999  0.2838479696797911  0.5822966227369495  1.0000
  Br  Br1       1.0  0.8573547304826775  0.17377205640461568  0.5857438817512302  1.0000
  H   H1        1.0  0.6505629755656027  0.6292740053834764  0.5714790090160418  1.0000
  H   H2        1.0  0.49654903007939766  0.22731090225258963  0.5840669277480082  1.0000
  H   H3        1.0  0.6511050673177561  0.09291185897395306  0.5882758231678034  1.0000
  C   C9        1.0  0.15297583736935194  0.15549966757178657  0.5715537520963281  1.0000
  C   C10       1.0  0.12648047787833816  0.23867836738482628  0.45704617546352727  1.0000
  C   C11       1.0  0.09212405996479944  0.17263329602271307  0.34860443306899147  1.0000
  C   C12       1.0  0.08369718468377839  0.0225063221628179  0.3533931340815599  1.0000
  C   C13       1.0  0.11108874519058864  0.9381209557198004  0.4652905697650151  1.0000
  C   C14       1.0  0.14738284599357754  0.002262930113404064  0.5745708223230039  1.0000
  C   C15       1.0  0.06434349312266674  0.2593931485984422  0.23271676209634862  1.0000
  N   N3        1.0  0.04201562382267654  0.32913216469701645  0.1395727589817477  1.0000
  H   H4        1.0  0.17163452562025783  0.23213443350431318  0.8903422604706077  1.0000
  H   H5        1.0  0.13042759854326702  0.3556410356791537  0.45319262333306404  1.0000
  H   H6        1.0  0.056777249141631854  0.9703742891447923  0.2700488553274092  1.0000
  H   H7        1.0  0.10601478767876915  0.8216499367972285  0.4651763832091247  1.0000
  H   H8        1.0  0.16404695448607723  0.7034711905629318  0.7881681021787516  1.0000
  C   C16       1.0  0.15027148531672108  0.5789399112965878  0.19168089265008192  1.0000
  C   C17       1.0  0.2437901281583974  0.6368134131888239  0.18661439888995246  1.0000
  C   C18       1.0  0.2902448507466626  0.6684549942593785  0.06677103858025135  1.0000
  C   C19       1.0  0.24354816240006436  0.6366603598232472  0.9513764016606426  1.0000
  C   C20       1.0  0.15008722362242155  0.5788226868720678  0.9544436556608523  1.0000
  C   C21       1.0  0.1038438593191504  0.5508322840144786  0.07507258629263158  1.0000
  C   C22       1.0  0.3919958880690606  0.7256972334363914  0.06271023779148943  1.0000
  F   F1        1.0  0.4083182897369959  0.8099029105491544  0.16590102683343333  1.0000
  F   F2        1.0  0.45658120635008337  0.6107880923929221  0.07016825937950544  1.0000
  F   F3        1.0  0.40805296560005666  0.8098831690941067  0.9482575591202539  1.0000
  H   H9        1.0  0.974462261045246  0.4673157795319846  0.40863945154348674  1.0000
  H   H10       1.0  0.28071222863686085  0.6571168935361591  0.2760823924657294  1.0000
  H   H11       1.0  0.2803043208773093  0.6568549781857747  0.8590674483997597  1.0000
  H   H12       1.0  0.03176378205965169  0.5062295156853609  0.07817264935303148  1.0000
  H   H13       1.0  0.11480230271566084  0.5542208338184187  0.6283253099161894  1.0000
  Zn  Zn1       1.0  0.04430128203597272  0.5788111870928538  0.5730664106619454  1.0000
  Zn  Zn2       1.0  0.256048149007138  0.5789506873249002  0.5730575248613154  1.0000
  C   C23       1.0  0.15015780900397147  0.5731011224921754  0.8102446847234616  1.0000
  C   C24       1.0  0.15019392226173323  0.584662572587796  0.3358793846550716  1.0000
  C   C25       1.0  0.14843631300788984  0.8422074218691198  0.5688251590954709  1.0000
  C   C26       1.0  0.15191535742820128  0.31555454093990276  0.5772989733550855  1.0000
  O   O1        1.0  0.23052476542565478  0.5866297996271004  0.3842703213151166  1.0000
  O   O2        1.0  0.23053794565669805  0.571238685292839  0.7618466262127226  1.0000
  O   O3        1.0  0.22914673229375726  0.7885454244321446  0.5668986565718208  1.0000
  O   O4        1.0  0.23191590648913696  0.3693230707689561  0.5792181936179497  1.0000
  O   O5        1.0  0.06843345229515149  0.7884388036027641  0.5669057419015171  1.0000
  O   O6        1.0  0.06982465422888384  0.5711337966883733  0.7618536484666023  1.0000
  O   O7        1.0  0.06981147477122819  0.5865248610205446  0.3842757819382807  1.0000
  O   O8        1.0  0.07120261587534693  0.36921812183520575  0.5792237515753895  1.0000
