data_image0
_chemical_formula_structural       NC9NC3SH6C7ONH7C6OCH7Zn2C4O8
_chemical_formula_sum              "N3 C30 S1 H20 O10 Zn2"
_cell_length_a       16.77567553997237
_cell_length_b       10.297852080636378
_cell_length_c       9.273891588657152
_cell_angle_alpha    86.07585780887825
_cell_angle_beta     90.06962488754225
_cell_angle_gamma    90.87229915396684

_space_group_name_H-M_alt    "P 1"
_space_group_IT_number       1

loop_
  _space_group_symop_operation_xyz
  'x, y, z'

loop_
  _atom_site_type_symbol
  _atom_site_label
  _atom_site_symmetry_multiplicity
  _atom_site_fract_x
  _atom_site_fract_y
  _atom_site_fract_z
  _atom_site_occupancy
  N   N1        1.0  0.7552638720796013  0.4273477391467657  0.4179523684782358  1.0000
  C   C1        1.0  0.7003630742691197  0.47705938042365936  0.464129729195858  1.0000
  C   C2        1.0  0.6322303963394976  0.5387482366245391  0.5214323008732837  1.0000
  C   C3        1.0  0.6340233064529175  0.6277103762270707  0.6269428199430209  1.0000
  C   C4        1.0  0.558269841993291  0.671475514844893  0.6619231368646032  1.0000
  C   C5        1.0  0.49651788802662855  0.6167835803787438  0.5835425517158737  1.0000
  C   C6        1.0  0.4099849183843373  0.6429509469078786  0.595589657416667  1.0000
  C   C7        1.0  0.3533830242650163  0.5628228822086386  0.5308873534745491  1.0000
  C   C8        1.0  0.2717037641899634  0.5869698955188134  0.5417614625386493  1.0000
  C   C9        1.0  0.21443969821427278  0.5041601711708212  0.4755101322399446  1.0000
  N   N2        1.0  0.16841638012221696  0.4375930220867208  0.42225385127016546  1.0000
  C   C10       1.0  0.24579705649920308  0.6915571208596403  0.6171590989864479  1.0000
  C   C11       1.0  0.3013088399593957  0.7718398615470299  0.6813491089070689  1.0000
  C   C12       1.0  0.3828293671239306  0.7480588201111811  0.6708020157552685  1.0000
  S   S1        1.0  0.5374680004746759  0.5137659134659271  0.4713084616039687  1.0000
  H   H1        1.0  0.6882638022747124  0.6599898137200914  0.677744663164521  1.0000
  H   H2        1.0  0.5497405429695424  0.740050967916627  0.7434905037810018  1.0000
  H   H3        1.0  0.3723755313909473  0.48103679929384124  0.4726642109020471  1.0000
  H   H4        1.0  0.18278135971503667  0.7110925678701965  0.6261386115855125  1.0000
  H   H5        1.0  0.281136888192326  0.8530114383422581  0.739219802682235  1.0000
  H   H6        1.0  0.4241040428296068  0.8131150232026073  0.7204882261862378  1.0000
  C   C13       1.0  0.9619288979880112  0.051035518380448064  0.42011265443972623  1.0000
  C   C14       1.0  0.9514832937035411  0.059090567038764474  0.2694278656130549  1.0000
  C   C15       1.0  0.9454822460207695  0.9460655645521534  0.19313396630245339  1.0000
  C   C16       1.0  0.9512819058302311  0.823832959838756  0.26937604391668035  1.0000
  C   C17       1.0  0.9617589164906548  0.8138955611489576  0.42010609223285145  1.0000
  C   C18       1.0  0.9668250921395813  0.9280020578578035  0.494521708972238  1.0000
  C   C19       1.0  0.9346473874600318  0.9571787098472531  0.03396336616325791  1.0000
  O   O1        1.0  0.9561675941742412  0.06023405785622816  0.9624108591366629  1.0000
  N   N3        1.0  0.8992604579512928  0.853887176992181  0.9591770906620473  1.0000
  H   H7        1.0  0.981960041361028  0.24309147462178318  0.7048335244318125  1.0000
  H   H8        1.0  0.9472953182144164  0.15364161645507005  0.21128297228896753  1.0000
  H   H9        1.0  0.9492053461515408  0.7361119127307565  0.2115447301260618  1.0000
  H   H10       1.0  0.9748736605407379  0.9210403333002021  0.6106563273100853  1.0000
  H   H11       1.0  0.9828386028270241  0.5878872934897442  0.7047065362344058  1.0000
  H   H12       1.0  0.8955916339852503  0.8619526492859753  0.8465207815577247  1.0000
  H   H13       1.0  0.8718643071276435  0.7735217035332572  0.014276200692811875  1.0000
  C   C20       1.0  0.9631506936673888  0.42905784668519753  0.9968476942303077  1.0000
  C   C21       1.0  0.028424916694546498  0.48553986176012764  0.06610065458383096  1.0000
  C   C22       1.0  0.08917497230250014  0.5516089908416205  0.9869230054395448  1.0000
  C   C23       1.0  0.08486801917646568  0.5615269685982596  0.8354374885895961  1.0000
  C   C24       1.0  0.021268838146876638  0.5042999963736439  0.7648597748951933  1.0000
  C   C25       1.0  0.9605371325000672  0.4358731849771702  0.8433710811237818  1.0000
  O   O2        1.0  0.15227239685741492  0.6064377598391852  0.06278621978400456  1.0000
  C   C26       1.0  0.21790566885235507  0.6764248959034793  0.9963927631383823  1.0000
  H   H14       1.0  0.7735449544075002  0.344577216091621  0.10589135330191346  1.0000
  H   H15       1.0  0.1307806261875497  0.6122658435937347  0.7709930625457146  1.0000
  H   H16       1.0  0.020624090280784154  0.5109784555454765  0.6477718443557254  1.0000
  H   H17       1.0  0.8340965271684703  0.373876828028586  0.5666123652885213  1.0000
  H   H18       1.0  0.19648647627741478  0.763792700586948  0.9317736331762108  1.0000
  H   H19       1.0  0.2511604998468042  0.6127843880454791  0.9263267280376982  1.0000
  H   H20       1.0  0.25870737336139804  0.7084842178732816  0.08166092119110346  1.0000
  Zn  Zn1       1.0  0.8744907392368979  0.4303009056280945  0.4192020157944438  1.0000
  Zn  Zn2       1.0  0.049189473816168006  0.4346293547147913  0.4210160407057133  1.0000
  C   C27       1.0  0.9610305391144812  0.4294103595515264  0.6833600789526753  1.0000
  C   C28       1.0  0.9626515808414472  0.4355215881004446  0.15685813881103594  1.0000
  C   C29       1.0  0.9618046999937022  0.6696524304833598  0.414363675670681  1.0000
  C   C30       1.0  0.9618773604601794  0.19527795573727902  0.42585461833173555  1.0000
  O   O3        1.0  0.02878133460278276  0.4393278359135042  0.21124751877410652  1.0000
  O   O4        1.0  0.02749308414455131  0.42888832120899445  0.6303470870194923  1.0000
  O   O5        1.0  0.028117330499236818  0.622886821684985  0.41313057888330307  1.0000
  O   O6        1.0  0.028157028966840022  0.24532934238225562  0.42846391822008734  1.0000
  O   O7        1.0  0.8955231244701447  0.6196009164848959  0.41175413765345015  1.0000
  O   O8        1.0  0.894898878001425  0.42560397596450306  0.6289705689243152  1.0000
  O   O9        1.0  0.8961871338729471  0.4360434314547393  0.20986926776171066  1.0000
  O   O10       1.0  0.8955628279021802  0.2420449295030147  0.4270857752712809  1.0000
