data_image0
_chemical_formula_structural       NC9NC3SH6C8H6C12H10Zn2C4O8
_chemical_formula_sum              "N2 C36 S1 H22 Zn2 O8"
_cell_length_a       16.77567553997237
_cell_length_b       9.27514070457351
_cell_length_c       10.299141136925906
_cell_angle_alpha    85.68100498211918
_cell_angle_beta     90.41956326603899
_cell_angle_gamma    91.48491386358626

_space_group_name_H-M_alt    "P 1"
_space_group_IT_number       1

loop_
  _space_group_symop_operation_xyz
  'x, y, z'

loop_
  _atom_site_type_symbol
  _atom_site_label
  _atom_site_symmetry_multiplicity
  _atom_site_fract_x
  _atom_site_fract_y
  _atom_site_fract_z
  _atom_site_occupancy
  N   N1        1.0  0.7595098951094235  0.5993754996742107  0.577992791916832  1.0000
  C   C1        1.0  0.7050858161104425  0.6541443457232794  0.6197239405975774  1.0000
  C   C2        1.0  0.6375447131233541  0.7221088626820213  0.6715091045746555  1.0000
  C   C3        1.0  0.6402650093782623  0.8199102097424809  0.7667998242785763  1.0000
  C   C4        1.0  0.564912817849342  0.8681799411462665  0.798427088798034  1.0000
  C   C5        1.0  0.5025468451833451  0.8081785222205903  0.7276665577403649  1.0000
  C   C6        1.0  0.4162250053655441  0.837121000463654  0.7385862159180892  1.0000
  C   C7        1.0  0.358886297963871  0.7487517040129135  0.6800880057543726  1.0000
  C   C8        1.0  0.27740107808933856  0.7754618058221114  0.6899457435699159  1.0000
  C   C9        1.0  0.2193775411037491  0.684129353569434  0.6300451576545891  1.0000
  N   N2        1.0  0.1727437181265155  0.6107111501310785  0.5818939359496036  1.0000
  C   C10       1.0  0.2524266953389618  0.8908894299755419  0.7581413717155199  1.0000
  C   C11       1.0  0.3086746454795062  0.9794351884029265  0.8161783540763815  1.0000
  C   C12       1.0  0.3900045999919364  0.9531284084077956  0.8066161795802078  1.0000
  S   S1        1.0  0.5424553451581396  0.6948333555320396  0.6262828547167889  1.0000
  H   H1        1.0  0.69488264703385  0.8552814416117203  0.8126549748244325  1.0000
  H   H2        1.0  0.5570991494529121  0.9435668218485729  0.8720933117604324  1.0000
  H   H3        1.0  0.3771521300073351  0.6584817480376408  0.6274238393513085  1.0000
  H   H4        1.0  0.18956857255470094  0.912496790123853  0.7662805991310369  1.0000
  H   H5        1.0  0.2892241849032872  0.06902610983714387  0.8685234282667561  1.0000
  H   H6        1.0  0.4318682564800178  0.024901940274050013  0.8515468228285348  1.0000
  C   C13       1.0  0.963708209545486  0.18153649812977513  0.5790122779104807  1.0000
  C   C14       1.0  0.9750662571672866  0.26532230729895523  0.46064764615776416  1.0000
  C   C15       1.0  0.993379030794137  0.2005411400047612  0.34700350847223205  1.0000
  C   C16       1.0  0.0007719666761201175  0.05081334990904462  0.3495423096788066  1.0000
  C   C17       1.0  0.9883922090465505  0.9654192559947621  0.4657687648356534  1.0000
  C   C18       1.0  0.9685529530136929  0.028539287057942835  0.5808857929813034  1.0000
  C   C19       1.0  0.020171744903404457  0.9843120961357718  0.23227820985954953  1.0000
  C   C20       1.0  0.03641487655370889  0.928618641996853  0.13410302305611  1.0000
  H   H7        1.0  0.9768250983118467  0.2583144638359045  0.8982555056818906  1.0000
  H   H8        1.0  0.9716366577174891  0.3820541879726853  0.45663725269909894  1.0000
  H   H9        1.0  0.002553630344942045  0.267558264598748  0.25730601782773177  1.0000
  H   H10       1.0  0.9924116966065917  0.8489223293297687  0.46564627471319725  1.0000
  H   H11       1.0  0.9743241274344695  0.7301126116934913  0.7959500163405809  1.0000
  H   H12       1.0  0.050672859849190344  0.8797297886824602  0.04792582540757607  1.0000
  C   C21       1.0  0.9660406632072543  0.6051584871976567  0.19855543669664777  1.0000
  C   C22       1.0  0.04941693900006805  0.6229751412163316  0.19756082424653476  1.0000
  C   C23       1.0  0.09178462572393652  0.6318849966027742  0.07992339991214026  1.0000
  C   C24       1.0  0.049649045417572424  0.6227376707261405  0.962296784614721  1.0000
  C   C25       1.0  0.9662205429167973  0.604917292716268  0.9613426319942913  1.0000
  C   C26       1.0  0.9249300435514974  0.5962350514202064  0.07992288633992728  1.0000
  C   C27       1.0  0.17998834693858565  0.6507350406537113  0.07991596765349818  1.0000
  C   C28       1.0  0.22699097217825437  0.5731740958743223  0.9979661391886467  1.0000
  C   C29       1.0  0.31000746746675123  0.5910959341037966  0.9981974124841136  1.0000
  C   C30       1.0  0.3469782124219183  0.68641819119776  0.07990807392282506  1.0000
  C   C31       1.0  0.3010072727643702  0.7640170016555978  0.161622981937386  1.0000
  C   C32       1.0  0.21797195117098078  0.7464561706812907  0.16186212757035734  1.0000
  H   H13       1.0  0.933964931997243  0.5983783384058139  0.5264087797655748  1.0000
  H   H14       1.0  0.08170546020892622  0.627977159855067  0.2886269198724065  1.0000
  H   H15       1.0  0.08189742530411648  0.6315182449565022  0.8711924363705436  1.0000
  H   H16       1.0  0.8606198283247432  0.5824966601576089  0.07997414623717725  1.0000
  H   H17       1.0  0.8087070241743755  0.5721957187793041  0.7521879562511686  1.0000
  H   H18       1.0  0.19964504248135362  0.4973692331125814  0.9350346241216044  1.0000
  H   H19       1.0  0.3457134395609478  0.5307191808848584  0.9351734619411243  1.0000
  H   H20       1.0  0.41124571875148375  0.7001509836129818  0.07990519411897501  1.0000
  H   H21       1.0  0.3297129008430302  0.8381571875513361  0.2246438710584544  1.0000
  H   H22       1.0  0.18342823239088824  0.8090356447714628  0.2247976105760474  1.0000
  Zn  Zn1       1.0  0.878760232710278  0.602642870698878  0.5791260773585922  1.0000
  Zn  Zn2       1.0  0.05349331078129982  0.6074320107964382  0.5807712902896836  1.0000
  C   C33       1.0  0.9661518797617376  0.599217512257677  0.8171467691061776  1.0000
  C   C34       1.0  0.9661035822480072  0.6108592411677063  0.34275074800739636  1.0000
  C   C35       1.0  0.9676318847627966  0.8684392534721682  0.5753560871929086  1.0000
  C   C36       1.0  0.9646235077282184  0.3416357655943758  0.5845414947698186  1.0000
  O   O1        1.0  0.032434954963555196  0.6145836282276308  0.39176834754025247  1.0000
  O   O2        1.0  0.032438863942639395  0.5991268838633503  0.7693774718436837  1.0000
  O   O3        1.0  0.03363309312217621  0.8165268197405116  0.5741297803897425  1.0000
  O   O4        1.0  0.031240666195504696  0.3971837010637651  0.5870159410746472  1.0000
  O   O5        1.0  0.9010128176682565  0.8128911787988248  0.5728814260053703  1.0000
  O   O6        1.0  0.8998185983796331  0.5954929756477774  0.7681290520419  1.0000
  O   O7        1.0  0.899814688797937  0.6109496702508868  0.3905183661261256  1.0000
  O   O8        1.0  0.8986203999905837  0.39354973274099936  0.5857660570118086  1.0000
