data_image0
_chemical_formula_structural       NC5OC5NC4H8C6ClH5C7OH5Zn2C4O8
_chemical_formula_sum              "N2 C31 O10 H18 Cl1 Zn2"
_cell_length_a       19.189071930511275
_cell_length_b       10.30297070629231
_cell_length_c       9.274074313596557
_cell_angle_alpha    86.12141784095925
_cell_angle_beta     90.21172444201244
_cell_angle_gamma    89.98947815314023

_space_group_name_H-M_alt    "P 1"
_space_group_IT_number       1

loop_
  _space_group_symop_operation_xyz
  'x, y, z'

loop_
  _atom_site_type_symbol
  _atom_site_label
  _atom_site_symmetry_multiplicity
  _atom_site_fract_x
  _atom_site_fract_y
  _atom_site_fract_z
  _atom_site_occupancy
  N   N1        1.0  0.653059665212422  0.4066314983127268  0.409721765217137  1.0000
  C   C1        1.0  0.5985620031718258  0.4525556053724922  0.3894224167045899  1.0000
  C   C2        1.0  0.5307739400905209  0.5096775388716268  0.36417307761153506  1.0000
  C   C3        1.0  0.5208548312479336  0.6055763379572847  0.2516213109659522  1.0000
  C   C4        1.0  0.45500632419931575  0.6611372418389103  0.22723421037227373  1.0000
  C   C5        1.0  0.3984151886576151  0.6206825560263722  0.31389478172269536  1.0000
  O   O1        1.0  0.3333906905517437  0.6798516877577405  0.2869941336439432  1.0000
  C   C6        1.0  0.2684729210200942  0.6204875319639984  0.31326861970042463  1.0000
  C   C7        1.0  0.2117753520327948  0.6983486206034022  0.34685184451904294  1.0000
  C   C8        1.0  0.1460266165135468  0.6430814377507881  0.37218301868831555  1.0000
  C   C9        1.0  0.1363142006586921  0.5092202646456014  0.3627035451553995  1.0000
  C   C10       1.0  0.0686286685234523  0.4523036587035312  0.388612641532204  1.0000
  N   N2        1.0  0.014213489781834699  0.40654468929060505  0.4094428892634778  1.0000
  C   C11       1.0  0.1925343420291141  0.43103219955116717  0.3269923900018403  1.0000
  C   C12       1.0  0.2582743123888993  0.4863392384688532  0.3017096430808721  1.0000
  C   C13       1.0  0.40881998911921574  0.5257019716618196  0.42824264650173216  1.0000
  C   C14       1.0  0.47465971733376505  0.47013756633402126  0.4526978647032192  1.0000
  H   H1        1.0  0.5639674775376586  0.6374715392254282  0.1829345360995014  1.0000
  H   H2        1.0  0.4477984873118018  0.7353822737263975  0.14014930890103283  1.0000
  H   H3        1.0  0.21882315572584013  0.8019552248237005  0.3541512214979324  1.0000
  H   H4        1.0  0.1028297571902643  0.7046659907876991  0.3989342508785363  1.0000
  H   H5        1.0  0.185476572516303  0.32756326277345815  0.3179452354386476  1.0000
  H   H6        1.0  0.3007545972309956  0.4249298547624032  0.2711698420400326  1.0000
  H   H7        1.0  0.3664216279027009  0.4960074771975828  0.4996520535165401  1.0000
  H   H8        1.0  0.4818764727960775  0.3969507411969655  0.5409941094910626  1.0000
  C   C15       1.0  0.8336399235374022  0.0253407167212123  0.4095885328853921  1.0000
  C   C16       1.0  0.9056534747181914  0.022425649182643788  0.4372935821032129  1.0000
  C   C17       1.0  0.9413846765434781  0.9040224256742571  0.4510399873189915  1.0000
  C   C18       1.0  0.9056534740282132  0.7873176799139531  0.437293514320323  1.0000
  C   C19       1.0  0.8336399311371511  0.7878256592611078  0.40958861538472463  1.0000
  C   C20       1.0  0.7979841890297752  0.9074306526524665  0.3958711087386364  1.0000
  Cl  Cl1       1.0  0.031346759433916294  0.9018843278498149  0.4856500953042069  1.0000
  H   H9        1.0  0.80651367848898  0.35374188280217855  0.39915171916736064  1.0000
  H   H10       1.0  0.9342950139138664  0.11179151939370446  0.44831242975215146  1.0000
  H   H11       1.0  0.9342949861509222  0.6965903256572722  0.44831232622320405  1.0000
  H   H12       1.0  0.7424451529090428  0.9087505136757512  0.3745040975883367  1.0000
  H   H13       1.0  0.8065136756269836  0.4607139185311599  0.3991519912851431  1.0000
  C   C21       1.0  0.8328055341135934  0.4028441678439725  0.9863480150997815  1.0000
  C   C22       1.0  0.7720441505784285  0.4411875363907156  0.056283790443415915  1.0000
  C   C23       1.0  0.7147144074272979  0.4899637783275552  0.9771458315613337  1.0000
  C   C24       1.0  0.716804999043771  0.5016939892962884  0.8258642159436863  1.0000
  C   C25       1.0  0.776625460886084  0.4617834434732573  0.7547892812027093  1.0000
  C   C26       1.0  0.8344743115350688  0.410322131947257  0.832829132685593  1.0000
  C   C27       1.0  0.6568605462028425  0.5540410912099596  0.7405198008293685  1.0000
  O   O2        1.0  0.6022513768072608  0.5902272667330462  0.8012682495611698  1.0000
  H   H14       1.0  0.003078214293515959  0.3697264323978915  0.09300509619112973  1.0000
  H   H15       1.0  0.6689902346956291  0.5196951149473501  0.03458279459978275  1.0000
  H   H16       1.0  0.777432970399927  0.46807485443388  0.637631994887796  1.0000
  H   H17       1.0  0.9489294406662653  0.38331100392425743  0.5552749225178992  1.0000
  H   H18       1.0  0.6593351279457897  0.5619208569364331  0.6236483728551798  1.0000
  Zn  Zn1       1.0  0.7572808828070623  0.40660305714024814  0.40964960447689786  1.0000
  Zn  Zn2       1.0  0.909992312797824  0.4065626536859026  0.40952683419964186  1.0000
  C   C28       1.0  0.8341573402490409  0.40373663841139384  0.6728260349349513  1.0000
  C   C29       1.0  0.8331175232388454  0.4094307113209115  0.14635054386237467  1.0000
  C   C30       1.0  0.8336250318123313  0.6436490075660422  0.403845191228124  1.0000
  C   C31       1.0  0.83364977971726  0.16951678305327755  0.41533146445157626  1.0000
  O   O3        1.0  0.8911754214583582  0.4116202186434401  0.20000226347562977  1.0000
  O   O4        1.0  0.8920038830725855  0.4015154827261971  0.6190807206302372  1.0000
  O   O5        1.0  0.8915732589957481  0.5952477683706365  0.4018767868810067  1.0000
  O   O6        1.0  0.8916059932120823  0.21788794134537426  0.4172060892010341  1.0000
  O   O7        1.0  0.7756671502798728  0.5952777694959108  0.4019703495098199  1.0000
  O   O8        1.0  0.7760977742020739  0.40154704297959065  0.6191742064109909  1.0000
  O   O9        1.0  0.7752693092179905  0.4116517183470482  0.2000940164248708  1.0000
  O   O10       1.0  0.7756998811818968  0.21791943271774317  0.417297950208416  1.0000
