data_image0
_chemical_formula_structural       NC10NC2OCH8C7ONC2H11C7ONC2H11Zn2C4O8
_chemical_formula_sum              "N4 C35 O11 H30 Zn2"
_cell_length_a       19.251394670931877
_cell_length_b       10.299288639353465
_cell_length_c       10.300139412416755
_cell_angle_alpha    85.54666550466969
_cell_angle_beta     89.93651721721767
_cell_angle_gamma    90.0661692516291

_space_group_name_H-M_alt    "P 1"
_space_group_IT_number       1

loop_
  _space_group_symop_operation_xyz
  'x, y, z'

loop_
  _atom_site_type_symbol
  _atom_site_label
  _atom_site_symmetry_multiplicity
  _atom_site_fract_x
  _atom_site_fract_y
  _atom_site_fract_z
  _atom_site_occupancy
  N   N1        1.0  0.6540038794302223  0.42383549251056696  0.5665450295486485  1.0000
  C   C1        1.0  0.5939267536398902  0.42026552855728716  0.5651877376131136  1.0000
  C   C2        1.0  0.5191503985666098  0.4158368327332192  0.5635554128493063  1.0000
  C   C3        1.0  0.4858038462941719  0.3861131489326475  0.4559202477089854  1.0000
  C   C4        1.0  0.40951014558510573  0.37950505173181037  0.4527741461314511  1.0000
  C   C5        1.0  0.3722442069615395  0.41606744071259044  0.5538748977544736  1.0000
  C   C6        1.0  0.2950941273867431  0.4172928947728877  0.5535863819188847  1.0000
  C   C7        1.0  0.25920442097664353  0.4031676095974258  0.6728480885004793  1.0000
  C   C8        1.0  0.18660603768378162  0.404820465027536  0.6759438094348722  1.0000
  C   C9        1.0  0.1488259201744976  0.4215485071635601  0.5599227491674752  1.0000
  C   C10       1.0  0.07407956825006572  0.42340876734878435  0.5632236475390684  1.0000
  N   N2        1.0  0.0139895379448678  0.42490423989445847  0.5658772392990299  1.0000
  C   C11       1.0  0.1839283988227186  0.43714204391328737  0.44071807972774035  1.0000
  C   C12       1.0  0.256536814385211  0.43542910183350836  0.43731322829338354  1.0000
  O   O1        1.0  0.4073050453905319  0.455541391567587  0.6635732001852208  1.0000
  C   C13       1.0  0.47948747942728953  0.4308535169299965  0.6876464769348984  1.0000
  H   H1        1.0  0.51457539610463  0.3675174100046849  0.3687778500347785  1.0000
  H   H2        1.0  0.38490294594691077  0.3462202940475938  0.36702451784742385  1.0000
  H   H3        1.0  0.2873159814407041  0.3896194333230534  0.7639084227771586  1.0000
  H   H4        1.0  0.15997131786811983  0.3930494045500552  0.7688428221854324  1.0000
  H   H5        1.0  0.1551833105959961  0.4513239117404953  0.3503567272344521  1.0000
  H   H6        1.0  0.2820844766616591  0.45075458667624035  0.3437971522636576  1.0000
  H   H7        1.0  0.5015366152000866  0.5122110229561152  0.7392063082277676  1.0000
  H   H8        1.0  0.48463972915165376  0.33955421507397987  0.7516906369558585  1.0000
  C   C14       1.0  0.8340667399644833  0.042990782107471315  0.5661588165751494  1.0000
  C   C15       1.0  0.8115406222494288  0.05208114386718953  0.4361205870749296  1.0000
  C   C16       1.0  0.8005851880945889  0.9395151505339407  0.36997445203092694  1.0000
  C   C17       1.0  0.8113951651450159  0.8168042274633006  0.4362820275402193  1.0000
  C   C18       1.0  0.8339333294270875  0.8057389667523298  0.5662746686567268  1.0000
  C   C19       1.0  0.8452975307593155  0.9194067464162595  0.630388278675764  1.0000
  C   C20       1.0  0.7765676560152734  0.9486810434031151  0.23278087590712415  1.0000
  O   O2        1.0  0.7430516516900707  0.8551209658061701  0.19111961955408874  1.0000
  N   N3        1.0  0.7916251731464654  0.06130142040609043  0.14618581022726507  1.0000
  C   C21       1.0  0.7611063384902181  0.07748917665973654  0.01593440278787606  1.0000
  C   C22       1.0  0.7852548507138856  0.20430370152796543  0.943397597800231  1.0000
  H   H9        1.0  0.8421072079470826  0.3669646872170802  0.6162397869288925  1.0000
  H   H10       1.0  0.8012628896373872  0.14698524695513338  0.3874454784584527  1.0000
  H   H11       1.0  0.802802436011928  0.7297138298717086  0.3858786910486314  1.0000
  H   H12       1.0  0.8626893523732658  0.9116609642664015  0.7306675783902998  1.0000
  H   H13       1.0  0.8419466867973402  0.47403083518560896  0.616211599300996  1.0000
  H   H14       1.0  0.8268200773301995  0.13079350378605326  0.1750200639388071  1.0000
  H   H15       1.0  0.7035509302766563  0.07869759167116586  0.02426316179144727  1.0000
  H   H16       1.0  0.7766128422230575  0.9944941653838809  0.9594803723831284  1.0000
  H   H17       1.0  0.7695446716927494  0.28860676027200266  0.9977011840198791  1.0000
  H   H18       1.0  0.8426508861757861  0.20413153839511164  0.9322687402368959  1.0000
  H   H19       1.0  0.7612219623834952  0.21448937148638408  0.8451912259379574  1.0000
  C   C23       1.0  0.8340482754015994  0.42451649689235565  0.18485749741421675  1.0000
  C   C24       1.0  0.7663586059545118  0.37343383226813676  0.1881177708015931  1.0000
  C   C25       1.0  0.7318575196108871  0.3492786158216439  0.07257774437198194  1.0000
  C   C26       1.0  0.7661949019497429  0.3731667928450919  0.9529367985796803  1.0000
  C   C27       1.0  0.8339518099964366  0.42421324805416233  0.9475760196928409  1.0000
  C   C28       1.0  0.8673890573773941  0.45000714954537346  0.06402466332187084  1.0000
  C   C29       1.0  0.6608318522542981  0.29427699172980626  0.07649014950078414  1.0000
  O   O3        1.0  0.6467155753995164  0.20410385712924706  0.0045877194249215325  1.0000
  N   N4        1.0  0.607600595615686  0.3416796045085069  0.15927417080653905  1.0000
  C   C30       1.0  0.5495469749623405  0.2557735016667315  0.19994312150358118  1.0000
  C   C31       1.0  0.6070921130488766  0.4784806226762459  0.18976959888068023  1.0000
  H   H20       1.0  0.8601738172406846  0.4430113382091072  0.5111225090309419  1.0000
  H   H21       1.0  0.7407604043578813  0.35017064594118397  0.2806969358908147  1.0000
  H   H22       1.0  0.7396558150589956  0.3530571470670186  0.8639460385358134  1.0000
  H   H23       1.0  0.9195964517176283  0.4894302671118372  0.0607418677190894  1.0000
  H   H24       1.0  0.9619375049985502  0.5196610329437221  0.7302870595901725  1.0000
  H   H25       1.0  0.5141592930067654  0.3021759294237476  0.26783637945143846  1.0000
  H   H26       1.0  0.5192987196031367  0.23138691166522138  0.11335892432337148  1.0000
  H   H27       1.0  0.5698338708914797  0.1646731864203157  0.2509127003871594  1.0000
  H   H28       1.0  0.555488853370768  0.5071566281461091  0.22631600471483312  1.0000
  H   H29       1.0  0.646178572924764  0.4948429083700095  0.26571271415082753  1.0000
  H   H30       1.0  0.6188232562041838  0.5426149890730811  0.10070984864666488  1.0000
  Zn  Zn1       1.0  0.7578879684539982  0.4241404262552256  0.5663598168463619  1.0000
  Zn  Zn2       1.0  0.9101054518003854  0.4245886617271628  0.5660730817226807  1.0000
  C   C32       1.0  0.8339693865588508  0.41909673706951867  0.8034050766386673  1.0000
  C   C33       1.0  0.8340256956029829  0.42963399442014727  0.32902794651134437  1.0000
  C   C34       1.0  0.8339556273365749  0.661565357078004  0.5610777348121201  1.0000
  C   C35       1.0  0.8340394031482259  0.18716381388703107  0.5713553574356149  1.0000
  O   O4        1.0  0.8917838602491672  0.43151591047262516  0.3773040508959866  1.0000
  O   O5        1.0  0.8917407699184127  0.4175540417688131  0.7549109729443853  1.0000
  O   O6        1.0  0.8917288802917761  0.6133505160299102  0.5592299315852982  1.0000
  O   O7        1.0  0.8917956979449798  0.23571944538776157  0.5729849949821295  1.0000
  O   O8        1.0  0.776197670365048  0.6130096424430824  0.559447903677931  1.0000
  O   O9        1.0  0.7762095597243611  0.41721472855507186  0.7551288760303125  1.0000
  O   O10       1.0  0.7762526503067342  0.4311765526226559  0.3775203926138597  1.0000
  O   O11       1.0  0.7762644879890144  0.23538007821001464  0.5732014340639648  1.0000
