data_image0
_chemical_formula_structural       NC9NC3SH6C6NO2H5C12H10Zn2C4O8
_chemical_formula_sum              "N3 C34 S1 H21 O10 Zn2"
_cell_length_a       16.77567553997237
_cell_length_b       9.273392599741053
_cell_length_c       10.299141136925906
_cell_angle_alpha    85.66774758485903
_cell_angle_beta     90.41956326603899
_cell_angle_gamma    90.29770283283837

_space_group_name_H-M_alt    "P 1"
_space_group_IT_number       1

loop_
  _space_group_symop_operation_xyz
  'x, y, z'

loop_
  _atom_site_type_symbol
  _atom_site_label
  _atom_site_symmetry_multiplicity
  _atom_site_fract_x
  _atom_site_fract_y
  _atom_site_fract_z
  _atom_site_occupancy
  N   N1        1.0  0.7411857666837053  0.5992047801835436  0.5774740211526832  1.0000
  C   C1        1.0  0.6861341981621352  0.6539677801323664  0.6191874051020558  1.0000
  C   C2        1.0  0.6178144221633635  0.7219250424672126  0.6709505242219971  1.0000
  C   C3        1.0  0.6194142032896419  0.819715950080425  0.7662095212444343  1.0000
  C   C4        1.0  0.5435089829332211  0.8679805291081978  0.7978211290744838  1.0000
  C   C5        1.0  0.481830449649873  0.8079855148146298  0.7270800599767812  1.0000
  C   C6        1.0  0.3951770143509655  0.836924903698663  0.7379903304206321  1.0000
  C   C7        1.0  0.3388507585826852  0.7485650399054085  0.679520783574227  1.0000
  C   C8        1.0  0.2570595196801538  0.7752722906424363  0.689369857745786  1.0000
  C   C9        1.0  0.2000823833583577  0.6839495873384789  0.6294988962720343  1.0000
  N   N2        1.0  0.1542897165629363  0.6105392206578446  0.5813714883728176  1.0000
  C   C10       1.0  0.23076267662618127  0.890687593896111  0.7575280459801258  1.0000
  C   C11       1.0  0.28599615339927265  0.9792239008302202  0.8155363077867641  1.0000
  C   C12       1.0  0.3676275060606655  0.9529199288561461  0.805982666113785  1.0000
  S   S1        1.0  0.5230375511045943  0.6946524467415267  0.6257331214020463  1.0000
  H   H1        1.0  0.6736265908988963  0.8550834063768301  0.8120531988366348  1.0000
  H   H2        1.0  0.5348316031169998  0.9433593629135255  0.8714628996742464  1.0000
  H   H3        1.0  0.3581508182147375  0.6583047194665744  0.6268858969832207  1.0000
  H   H4        1.0  0.167656997190978  0.9122926476457557  0.7656602648684157  1.0000
  H   H5        1.0  0.2655192449685796  0.06880525920905844  0.8678523224155898  1.0000
  H   H6        1.0  0.4086688494548222  0.024685799519134306  0.850890029019266  1.0000
  C   C13       1.0  0.950171284329479  0.18141037933577997  0.5786290367065677  1.0000
  C   C14       1.0  0.9399919733701892  0.2645038550692689  0.4598949849113165  1.0000
  C   C15       1.0  0.9227791879897649  0.1989612411055952  0.3453994264754584  1.0000
  C   C16       1.0  0.9151760372063067  0.04833634390525021  0.34644336863049346  1.0000
  C   C17       1.0  0.9265985200150261  0.9641088104345581  0.46428349770880417  1.0000
  C   C18       1.0  0.9453118945352158  0.028322723780481958  0.5802277592630336  1.0000
  N   N3        1.0  0.8967219765438443  0.9813430941687971  0.2281278790553236  1.0000
  O   O1        1.0  0.8862352248600073  0.06417911415812183  0.11272758478531396  1.0000
  O   O2        1.0  0.8897026064329507  0.8472172046002114  0.2282689922913632  1.0000
  H   H7        1.0  0.9340146364632138  0.25737672264403577  0.8972319392714084  1.0000
  H   H8        1.0  0.943475717945444  0.3814426657207508  0.4560907203818505  1.0000
  H   H9        1.0  0.914612992430781  0.26667420258021046  0.25606076036509373  1.0000
  H   H10       1.0  0.9227485877477265  0.8474008246930935  0.46517165366610835  1.0000
  H   H11       1.0  0.937149634871532  0.7299661012355144  0.7955785836882745  1.0000
  C   C19       1.0  0.9476502787921919  0.6049871504231277  0.19803479017233092  1.0000
  C   C20       1.0  0.030822428251682913  0.6228019026682046  0.19703439874209566  1.0000
  C   C21       1.0  0.07308803429819366  0.631710807004707  0.07939408442189921  1.0000
  C   C22       1.0  0.031057255380965355  0.6225644575259327  0.9617704361358131  1.0000
  C   C23       1.0  0.9478329218794739  0.604745981687163  0.960822063703413  1.0000
  C   C24       1.0  0.9066418954050397  0.5960646671452074  0.079405134206326  1.0000
  C   C25       1.0  0.16107578957608149  0.6505588389766045  0.0793805379944712  1.0000
  C   C26       1.0  0.20896703460094007  0.573006173156716  0.9974558670680462  1.0000
  C   C27       1.0  0.29177819845513087  0.5909260983850881  0.997681327266017  1.0000
  C   C28       1.0  0.3276568313445736  0.6862381806531999  0.07936107013672178  1.0000
  C   C29       1.0  0.28079683807278477  0.7638287081097035  0.16105080833080865  1.0000
  C   C30       1.0  0.19796271183477065  0.7462697516020989  0.1612956499655666  1.0000
  H   H12       1.0  0.915652228100128  0.5982077253534812  0.5258903324389889  1.0000
  H   H13       1.0  0.06305364107239673  0.6278033873847468  0.2880988719215611  1.0000
  H   H14       1.0  0.06320503577109227  0.6313440945059984  0.8706632398392529  1.0000
  H   H15       1.0  0.8424890816427382  0.5823277423369599  0.07946085026520587  1.0000
  H   H16       1.0  0.7906942959144111  0.572027900494984  0.7516780014753279  1.0000
  H   H17       1.0  0.18248960516606227  0.49720940190792073  0.9345489399396024  1.0000
  H   H18       1.0  0.3281759101565285  0.5305557898619448  0.9346769604257984  1.0000
  H   H19       1.0  0.3917670003559719  0.6999695072117  0.07935373598727491  1.0000
  H   H20       1.0  0.3086530381790036  0.8379609801823422  0.22404764946508515  1.0000
  H   H21       1.0  0.1627020167596953  0.8088425458750894  0.22421083479762527  1.0000
  Zn  Zn1       1.0  0.8603986698445032  0.6024718024446363  0.5786062467954384  1.0000
  Zn  Zn2       1.0  0.03507687848791741  0.6072604313429444  0.5802499063290518  1.0000
  C   C31       1.0  0.9478295614060814  0.5990468096307994  0.8166280495865638  1.0000
  C   C32       1.0  0.947647883997706  0.6106872958870356  0.3422282523960496  1.0000
  C   C33       1.0  0.9462250788918484  0.8682398137547531  0.5747500433592458  1.0000
  C   C34       1.0  0.9492523168638491  0.34149255758937014  0.5841063240350737  1.0000
  O   O3        1.0  0.013936586216671156  0.6144112854008794  0.39124464389294245  1.0000
  O   O4        1.0  0.014117583921219087  0.5989561909102692  0.7688587817201438  1.0000
  O   O5        1.0  0.012821050709079792  0.8163329212260523  0.5735405747863269  1.0000
  O   O6        1.0  0.015233059740467736  0.39703456379746166  0.5865627529043863  1.0000
  O   O7        1.0  0.8802424289828427  0.8126976683575674  0.5722933996523748  1.0000
  O   O8        1.0  0.8815389522339615  0.5953226705829439  0.7676115406067561  1.0000
  O   O9        1.0  0.8813579544969183  0.6107777153176944  0.38999584118335195  1.0000
  O   O10       1.0  0.882654428099947  0.3934009833693594  0.58531404754944  1.0000
