data_image0
_chemical_formula_structural       NC5NC3BrH3C9H8C6NCH7Zn2C4O8
_chemical_formula_sum              "N3 C28 Br1 H18 Zn2 O8"
_cell_length_a       13.839083392302014
_cell_length_b       9.275152443626249
_cell_length_c       9.273390368590327
_cell_angle_alpha    85.97038560770253
_cell_angle_beta     89.99157220175844
_cell_angle_gamma    90.59950914120974

_space_group_name_H-M_alt    "P 1"
_space_group_IT_number       1

loop_
  _space_group_symop_operation_xyz
  'x, y, z'

loop_
  _atom_site_type_symbol
  _atom_site_label
  _atom_site_symmetry_multiplicity
  _atom_site_fract_x
  _atom_site_fract_y
  _atom_site_fract_z
  _atom_site_occupancy
  N   N1        1.0  0.9205522461967777  0.5624626240699195  0.4047803593402903  1.0000
  C   C1        1.0  0.8481223194385732  0.498821157504129  0.40746390539977595  1.0000
  C   C2        1.0  0.7578812107630961  0.4196291674339534  0.41080300684696325  1.0000
  C   C3        1.0  0.6708363786082788  0.49582905832907764  0.40759026043433644  1.0000
  C   C4        1.0  0.5822879301233138  0.4211018875016066  0.41074085389183945  1.0000
  C   C5        1.0  0.4930564655124941  0.4996531693630481  0.4074288070302179  1.0000
  N   N2        1.0  0.4213259741262013  0.5628022397494974  0.4047659839825455  1.0000
  C   C6        1.0  0.5807163891979013  0.26986332386440814  0.4171173753419031  1.0000
  C   C7        1.0  0.6673153612169267  0.19354216448698391  0.42033514332868904  1.0000
  C   C8        1.0  0.756055042398877  0.2675552121078866  0.4172146789194577  1.0000
  Br  Br1       1.0  0.8727187017960819  0.15746499265701774  0.4218563923680646  1.0000
  H   H1        1.0  0.6719990993644938  0.6130261431601065  0.40264879658942204  1.0000
  H   H2        1.0  0.5126267107626131  0.21101079350495125  0.4195984484009032  1.0000
  H   H3        1.0  0.6653911168307908  0.07659428174099944  0.42526572283885766  1.0000
  C   C9        1.0  0.16809319010758594  0.13901383452699556  0.4062446874380057  1.0000
  C   C10       1.0  0.13323944725032  0.2204281712490923  0.2838031273064181  1.0000
  C   C11       1.0  0.10736782447500337  0.1536434872168719  0.1590688796551818  1.0000
  C   C12       1.0  0.11594372908698825  0.004256747302229913  0.1543064878072475  1.0000
  C   C13       1.0  0.14890795386768585  0.9211419836641371  0.2757133038270833  1.0000
  C   C14       1.0  0.1737942067271787  0.9862400725822801  0.40331414832466894  1.0000
  C   C15       1.0  0.08976871885296389  0.9357165453513311  0.025136311961598594  1.0000
  C   C16       1.0  0.06785326461136587  0.8782967050917502  0.9169765420806608  1.0000
  C   C17       1.0  0.0412631928854752  0.8086158841150483  0.785743630401182  1.0000
  H   H4        1.0  0.3069300195346807  0.22381882306838022  0.6940781929045827  1.0000
  H   H5        1.0  0.12814937771412072  0.3369373868635473  0.28334991952719063  1.0000
  H   H6        1.0  0.08153602635545631  0.21887359555001384  0.06572597440514082  1.0000
  H   H7        1.0  0.1529764710795645  0.8047919782451454  0.27169259043386096  1.0000
  H   H8        1.0  0.2641711776133562  0.6930944813086324  0.6001827336058397  1.0000
  H   H9        1.0  0.05892743061985062  0.6920491464412183  0.7992076434813009  1.0000
  H   H10       1.0  0.9626168938901938  0.8209354005289374  0.7660150708004232  1.0000
  H   H11       1.0  0.08207327522988495  0.8600005125187884  0.6924514433918776  1.0000
  C   C18       1.0  0.17095821078720186  0.5581284909606142  0.9815492227170775  1.0000
  C   C19       1.0  0.2596873225414995  0.5553223989959566  0.05515908249312895  1.0000
  C   C20       1.0  0.3469586989000204  0.5659253079114321  0.9797053278311201  1.0000
  C   C21       1.0  0.3477191501785362  0.5797266155328067  0.8280295836742695  1.0000
  C   C22       1.0  0.2595626361372585  0.5801003124895767  0.7536185199576577  1.0000
  C   C23       1.0  0.17092920152318625  0.5671254089381403  0.8280096397230163  1.0000
  N   N3        1.0  0.43663487668995393  0.5919915992604461  0.7471965539680538  1.0000
  C   C24       1.0  0.5320411697946017  0.5922263164173229  0.8141814327762668  1.0000
  H   H12       1.0  0.017975654667069962  0.4887311596242471  0.26763326769456497  1.0000
  H   H13       1.0  0.4135262592842395  0.5646430516202947  0.040829017973838866  1.0000
  H   H14       1.0  0.9449852702756497  0.45490110214533724  0.732912651008653  1.0000
  H   H15       1.0  0.4335639737815049  0.6015499295080424  0.6342877411928239  1.0000
  H   H16       1.0  0.5389350026687296  0.6847689488886717  0.8833297024839308  1.0000
  H   H17       1.0  0.5431339323094133  0.48911788912869225  0.8800917085384268  1.0000
  H   H18       1.0  0.5887419098413949  0.6031702497172546  0.7292515234228274  1.0000
  Zn  Zn1       1.0  0.065064703409774  0.5625568506627305  0.4047845535965333  1.0000
  Zn  Zn2       1.0  0.27681342908572004  0.5626963150511282  0.4047736584027801  1.0000
  C   C25       1.0  0.1708938383068186  0.5596779337668707  0.6680303814436332  1.0000
  C   C26       1.0  0.17098661872118437  0.5655770551265602  0.14152796559882708  1.0000
  C   C27       1.0  0.1727118102574321  0.8260352041201597  0.3981248830572959  1.0000
  C   C28       1.0  0.16916856285041493  0.2992180523826018  0.4114335468224446  1.0000
  O   O1        1.0  0.25135364819102035  0.568123493895442  0.19521418023309753  1.0000
  O   O2        1.0  0.25123918478432383  0.5572362525716021  0.6143354864920498  1.0000
  O   O3        1.0  0.25270613681639054  0.7723231321443  0.3963848817863922  1.0000
  O   O4        1.0  0.249886623976604  0.3530366234460032  0.41316467684369407  1.0000
  O   O5        1.0  0.09199143625945294  0.7722165422217528  0.39639353515175063  1.0000
  O   O6        1.0  0.09052449588810507  0.557131394993621  0.6143440570162604  1.0000
  O   O7        1.0  0.09063895908023478  0.568018567630346  0.1952210181419618  1.0000
  O   O8        1.0  0.08917193478873142  0.35293168801154584  0.41317162284375186  1.0000
