data_image0
_chemical_formula_structural       NC9NC3OH6C8H6C8NH7Zn2C4O8
_chemical_formula_sum              "N3 C32 O9 H19 Zn2"
_cell_length_a       15.78231758774541
_cell_length_b       9.27514070457351
_cell_length_c       9.274266800404106
_cell_angle_alpha    86.12813201358244
_cell_angle_beta     89.63778846235708
_cell_angle_gamma    90.22379856908987

_space_group_name_H-M_alt    "P 1"
_space_group_IT_number       1

loop_
  _space_group_symop_operation_xyz
  'x, y, z'

loop_
  _atom_site_type_symbol
  _atom_site_label
  _atom_site_symmetry_multiplicity
  _atom_site_fract_x
  _atom_site_fract_y
  _atom_site_fract_z
  _atom_site_occupancy
  N   N1        1.0  0.8146142543379526  0.5571997161785776  0.41642886408348895  1.0000
  C   C1        1.0  0.765408529391848  0.46628806404859  0.4429366175988534  1.0000
  C   C2        1.0  0.7043179902669902  0.3534446085970673  0.47583957189992615  1.0000
  C   C3        1.0  0.7229305639023174  0.211694383164299  0.5170828416991353  1.0000
  C   C4        1.0  0.6456907291815113  0.14299729549280565  0.5371536948784053  1.0000
  C   C5        1.0  0.5846869979871281  0.2479090290726811  0.5066747751547096  1.0000
  C   C6        1.0  0.4914519116358199  0.22851321676826575  0.5124117200908427  1.0000
  C   C7        1.0  0.4385883824463321  0.34744244295981064  0.4776768625694614  1.0000
  C   C8        1.0  0.3502636978974433  0.33153840147473645  0.48238896809620835  1.0000
  C   C9        1.0  0.2967293628343144  0.4539278665585052  0.4466343285203389  1.0000
  N   N2        1.0  0.25370054166715084  0.5523131953808137  0.4178907821344433  1.0000
  C   C10       1.0  0.31411993294122176  0.1965281412413726  0.5218898844615063  1.0000
  C   C11       1.0  0.36605433024733297  0.07784483414777375  0.5565577649224085  1.0000
  C   C12       1.0  0.45419011186863173  0.09331195551585192  0.5519736967174387  1.0000
  O   O1        1.0  0.6220666664511217  0.37224225932784516  0.47044511600503025  1.0000
  H   H1        1.0  0.7850371254763931  0.16389069868871786  0.5309351098191513  1.0000
  H   H2        1.0  0.6361217780170186  0.03004036964011858  0.5700362735166731  1.0000
  H   H3        1.0  0.46597290193725666  0.4525043254063996  0.4469329046834565  1.0000
  H   H4        1.0  0.24590354458676428  0.18305822691317133  0.525878436953243  1.0000
  H   H5        1.0  0.33794481891071654  0.9735012127799676  0.5870920113386401  1.0000
  H   H6        1.0  0.4925796619096188  0.9993064868884338  0.57944225668017  1.0000
  C   C13       1.0  0.031592301385343385  0.1313367170417783  0.41614316079547  1.0000
  C   C14       1.0  0.044289967909025174  0.21365206617799015  0.2846902643222817  1.0000
  C   C15       1.0  0.06435274148630138  0.14716767604247694  0.15842842115990075  1.0000
  C   C16       1.0  0.07219507939608394  0.9971710167559374  0.16119495076390034  1.0000
  C   C17       1.0  0.058423085135420605  0.913269083599656  0.2902817552504178  1.0000
  C   C18       1.0  0.03673043338496697  0.9781651247359017  0.418188968550951  1.0000
  C   C19       1.0  0.09343213722451299  0.9288924726825998  0.03090773175324713  1.0000
  C   C20       1.0  0.111213550804871  0.8717109921449306  0.9218293932828621  1.0000
  H   H7        1.0  0.043835385490303955  0.2103596003141662  0.7703833128078099  1.0000
  H   H8        1.0  0.040666930188149236  0.33048417834493526  0.280262892460051  1.0000
  H   H9        1.0  0.07457803851086003  0.21304815599436178  0.05880862004310772  1.0000
  H   H10       1.0  0.06269488888592661  0.7966129777975061  0.2901179049615319  1.0000
  H   H11       1.0  0.04172103221584212  0.681371362762145  0.6568508046999437  1.0000
  H   H12       1.0  0.12682181788736502  0.8215159670939594  0.8260815186081345  1.0000
  C   C21       1.0  0.036090888139414634  0.5515766435219951  0.9938541924423715  1.0000
  C   C22       1.0  0.9862296555817531  0.44890524480795135  0.07459039298948576  1.0000
  C   C23       1.0  0.9313096160148598  0.35750475795248615  0.006290111176465713  1.0000
  C   C24       1.0  0.9244302438979909  0.3673822034916317  0.8555928216905202  1.0000
  C   C25       1.0  0.9754336766510607  0.4665934889652492  0.7735459148108447  1.0000
  C   C26       1.0  0.03223184306580104  0.5579251935363922  0.84047786366984  1.0000
  C   C27       1.0  0.866111444794184  0.26731647550157867  0.782075599790085  1.0000
  C   C28       1.0  0.9111911199396209  0.1349853020986833  0.7506948110658787  1.0000
  N   N3        1.0  0.9467756105724568  0.030545387757406915  0.7259253323282582  1.0000
  H   H13       1.0  0.13134825379876086  0.8678771794727377  0.07436684517045578  1.0000
  H   H14       1.0  0.988347453255889  0.441413588043774  0.19159357770655405  1.0000
  H   H15       1.0  0.893445603104689  0.27975291724737406  0.07122076160283729  1.0000
  H   H16       1.0  0.9721541530112727  0.4699201344121129  0.6566518814019329  1.0000
  H   H17       1.0  0.09942701229862887  0.7680455382353759  0.5448667201057895  1.0000
  H   H18       1.0  0.8422653231199257  0.320381251760492  0.6793536470831341  1.0000
  H   H19       1.0  0.8103641950239934  0.23830908220920355  0.851980589382022  1.0000
  Zn  Zn1       1.0  0.9413250071485928  0.5557857827258081  0.41685905034710746  1.0000
  Zn  Zn2       1.0  0.1269896352474815  0.5537154489987648  0.41747235134267324  1.0000
  C   C29       1.0  0.03292456107888819  0.5509810616917189  0.6804340080922413  1.0000
  C   C30       1.0  0.03539211916288451  0.5585219677843014  0.15389754617504248  1.0000
  C   C31       1.0  0.03578105658038934  0.818053501811588  0.4120578865409912  1.0000
  C   C32       1.0  0.03253554944566117  0.2914477966011766  0.42227374018549924  1.0000
  O   O2        1.0  0.10561632650767283  0.5600609107309653  0.2078422870368659  1.0000
  O   O3        1.0  0.10361550576559471  0.5478696924893156  0.626954330905836  1.0000
  O   O4        1.0  0.10592120535844309  0.7635340873091836  0.41023871443195636  1.0000
  O   O5        1.0  0.1033105641153082  0.34439652612166505  0.4245577952424548  1.0000
  O   O6        1.0  0.9650040149225849  0.7651047063109238  0.4097736062304575  1.0000
  O   O7        1.0  0.9626983261872777  0.5494420432623279  0.6264891500282626  1.0000
  O   O8        1.0  0.964699154580638  0.5616331982612088  0.20737537291461747  1.0000
  O   O9        1.0  0.9623933916296077  0.3459688041493566  0.42409098917162935  1.0000
