data_image0
_chemical_formula_structural       NC5NC3BrH3C6BrH5C6NCH7Zn2C4O8
_chemical_formula_sum              "N3 C25 Br2 H15 Zn2 O8"
_cell_length_a       13.839083392302014
_cell_length_b       9.276564384272257
_cell_length_c       9.273390368590327
_cell_angle_alpha    86.11919172510322
_cell_angle_beta     89.99157220175844
_cell_angle_gamma    90.61189963838827

_space_group_name_H-M_alt    "P 1"
_space_group_IT_number       1

loop_
  _space_group_symop_operation_xyz
  'x, y, z'

loop_
  _atom_site_type_symbol
  _atom_site_label
  _atom_site_symmetry_multiplicity
  _atom_site_fract_x
  _atom_site_fract_y
  _atom_site_fract_z
  _atom_site_occupancy
  N   N1        1.0  0.920776308952738  0.5619478578461783  0.40884812436285034  1.0000
  C   C1        1.0  0.8483372557794933  0.49832735848748344  0.41136598419874737  1.0000
  C   C2        1.0  0.7580847906880148  0.4191614588728809  0.4144989146935474  1.0000
  C   C3        1.0  0.671050885871423  0.4953362450842318  0.4114845495068973  1.0000
  C   C4        1.0  0.5824917212415835  0.4206336937407374  0.41444059586481297  1.0000
  C   C5        1.0  0.4932715211669049  0.49915909623321975  0.4113330519153955  1.0000
  N   N2        1.0  0.4215500855842707  0.5622873616365642  0.4088346331713961  1.0000
  C   C6        1.0  0.5808984921625768  0.26944495689817005  0.4204233780152933  1.0000
  C   C7        1.0  0.6674865194530404  0.19314894215742326  0.42344244906186845  1.0000
  C   C8        1.0  0.7562368143720312  0.2671376055681407  0.42051467258109554  1.0000
  Br  Br1       1.0  0.8728846864360896  0.15708365624985943  0.4248697736415983  1.0000
  H   H1        1.0  0.6722304131108225  0.6124947183671425  0.4068482002900564  1.0000
  H   H2        1.0  0.5128003740629123  0.21061181599119938  0.42275123251994384  1.0000
  H   H3        1.0  0.6655455043201948  0.07623958885787019  0.42806856272461924  1.0000
  C   C9        1.0  0.16825652878520225  0.13863857700636387  0.40921003237805476  1.0000
  C   C10       1.0  0.15587784953482609  0.22072984143622335  0.2774807598031175  1.0000
  C   C11       1.0  0.15249190206845298  0.15435211776665358  0.14698166567782378  1.0000
  C   C12       1.0  0.16146324597566752  0.004937784331820573  0.1457339343739923  1.0000
  C   C13       1.0  0.17213970331013687  0.9211308720840151  0.2754712786592455  1.0000
  C   C14       1.0  0.17407903725182505  0.9855856267065258  0.40848517698403275  1.0000
  Br  Br2       1.0  0.15754163633286566  0.9146747500010336  0.9666663568693514  1.0000
  H   H4        1.0  0.13991357093609347  0.4036614138717595  0.643529904095288  1.0000
  H   H5        1.0  0.15110937951426062  0.33735678476576436  0.2750134446872352  1.0000
  H   H6        1.0  0.14381195836400784  0.21949977492322728  0.04658780336466317  1.0000
  H   H7        1.0  0.17661067914105777  0.8048609044304366  0.2723637673642558  1.0000
  H   H8        1.0  0.227376458022589  0.6900741661724789  0.6329600796860806  1.0000
  C   C15       1.0  0.1711816520128966  0.5576151526528434  0.9856057041192852  1.0000
  C   C16       1.0  0.2599103613635212  0.5548099851783734  0.059208258426029385  1.0000
  C   C17       1.0  0.34718325821728824  0.5654094008778838  0.983782107715219  1.0000
  C   C18       1.0  0.3479456886529211  0.5792061615444077  0.8321422943227548  1.0000
  C   C19       1.0  0.2597892282011298  0.5795797353836274  0.7577322035007175  1.0000
  C   C20       1.0  0.1711539329392553  0.5666091065213912  0.8320895439883991  1.0000
  N   N3        1.0  0.436863174007087  0.5914671044718003  0.7513411956663059  1.0000
  C   C21       1.0  0.5322695007710183  0.5917017442991701  0.8183266855446507  1.0000
  H   H9        1.0  0.01818914406602912  0.488240684840787  0.271509077871285  1.0000
  H   H10       1.0  0.41375063472134666  0.5641275670366777  0.0449024595910179  1.0000
  H   H11       1.0  0.9451939083227774  0.45442177295388575  0.7367003869348889  1.0000
  H   H12       1.0  0.433793641797549  0.6010222856485063  0.6384572673528592  1.0000
  H   H13       1.0  0.5391766045912512  0.6842138878354758  0.8877158836928826  1.0000
  H   H14       1.0  0.5433474771667737  0.4886272869340009  0.8839685255390711  1.0000
  H   H15       1.0  0.5889718102171806  0.6026420720298351  0.7334252679761666  1.0000
  Zn  Zn1       1.0  0.06528877967816604  0.5620420533952599  0.40885256393161007  1.0000
  Zn  Zn2       1.0  0.27703752535380644  0.5621814718359619  0.4088420318238932  1.0000
  C   C22       1.0  0.17111750172818074  0.5591640849823625  0.6720908967146546  1.0000
  C   C23       1.0  0.17121112809775152  0.5650612628277696  0.14560383883051964  1.0000
  C   C24       1.0  0.17297367026868127  0.8254336017317492  0.40287884134010943  1.0000
  C   C25       1.0  0.16935487538866378  0.2987900142584645  0.41481597253218405  1.0000
  O   O1        1.0  0.2515785227360592  0.5676068626513553  0.1992966829446874  1.0000
  O   O2        1.0  0.25146249805982673  0.556723208219142  0.618389645012382  1.0000
  O   O3        1.0  0.2529602943234712  0.7717392256418798  0.40099900434814106  1.0000
  O   O4        1.0  0.2500806542913734  0.35259085434887094  0.41668721553761845  1.0000
  O   O5        1.0  0.09224557848115533  0.7716326708362637  0.40100738021389626  1.0000
  O   O6        1.0  0.09074779412665501  0.5566183851873564  0.6183979425470301  1.0000
  O   O7        1.0  0.09086381857847026  0.5675019709550844  0.19930324768516705  1.0000
  O   O8        1.0  0.0893659500553825  0.3524859534862592  0.41669388834541965  1.0000
