data_image0
_chemical_formula_structural       NC5NC3OH4C9H8C6ClH5Zn2C4O8
_chemical_formula_sum              "N2 C27 O9 H17 Cl1 Zn2"
_cell_length_a       13.84702359539666
_cell_length_b       9.275152443626249
_cell_length_c       10.302974078461048
_cell_angle_alpha    85.36323094855369
_cell_angle_beta     89.98558386727187
_cell_angle_gamma    90.5743638874884

_space_group_name_H-M_alt    "P 1"
_space_group_IT_number       1

loop_
  _space_group_symop_operation_xyz
  'x, y, z'

loop_
  _atom_site_type_symbol
  _atom_site_label
  _atom_site_symmetry_multiplicity
  _atom_site_fract_x
  _atom_site_fract_y
  _atom_site_fract_z
  _atom_site_occupancy
  N   N1        1.0  0.9199657972374907  0.5788411088078116  0.5627505159306279  1.0000
  C   C1        1.0  0.8477633963427199  0.570168737567009  0.6195723937022788  1.0000
  C   C2        1.0  0.7578443492646818  0.5593698036704244  0.6903276040864561  1.0000
  C   C3        1.0  0.6703303545947624  0.5698022588351802  0.6219729921187613  1.0000
  C   C4        1.0  0.5823996192954102  0.5594910159624988  0.689533059968835  1.0000
  C   C5        1.0  0.49262079587257207  0.5702320389585391  0.6191573800114769  1.0000
  N   N2        1.0  0.4204502457158193  0.5788669968001114  0.5625809437760104  1.0000
  C   C6        1.0  0.5819773170963591  0.5387162001461878  0.8256508211579138  1.0000
  C   C7        1.0  0.6691110177727447  0.5282740203257865  0.8940667354768912  1.0000
  C   C8        1.0  0.7573567354211237  0.5385188117648361  0.8269434020482782  1.0000
  O   O1        1.0  0.8442106845519224  0.5280588056358766  0.8954777199315037  1.0000
  H   H1        1.0  0.6706620990250336  0.5858969165901309  0.5165206628827266  1.0000
  H   H2        1.0  0.5143680258018406  0.5306007051928827  0.8788237037994022  1.0000
  H   H3        1.0  0.6680011342061045  0.5122112857825882  0.9993105463907216  1.0000
  H   H4        1.0  0.8456416819789014  0.5130255802670769  0.9939753788582937  1.0000
  C   C9        1.0  0.1673637878764536  0.15522160863083068  0.5639921206821576  1.0000
  C   C10       1.0  0.1325259852502405  0.23795920992493638  0.4537086194068358  1.0000
  C   C11       1.0  0.10666503522667403  0.17251652967855532  0.34135707269573756  1.0000
  C   C12       1.0  0.11523582242056543  0.023175033831412294  0.33706446388089195  1.0000
  C   C13       1.0  0.14818516308885046  0.9387491880768802  0.44641646689012426  1.0000
  C   C14       1.0  0.17306141064569494  0.0024754219987370733  0.5613505300770636  1.0000
  C   C15       1.0  0.08907150823666578  0.9560241748833359  0.22071716243169237  1.0000
  C   C16       1.0  0.06716500909719093  0.8997676902941224  0.12329453874957207  1.0000
  C   C17       1.0  0.04058580253499788  0.8314983970878367  0.005089270747774983  1.0000
  H   H5        1.0  0.306130272496712  0.23688022551826096  0.8232268674189889  1.0000
  H   H6        1.0  0.12743884070121814  0.3544764328467409  0.45330196594079686  1.0000
  H   H7        1.0  0.08084496226647553  0.23875496117499617  0.2572825909308101  1.0000
  H   H8        1.0  0.1522511921913925  0.822439368501592  0.442793366538017  1.0000
  H   H9        1.0  0.2633929154923169  0.7071806890017538  0.7386599453933351  1.0000
  H   H10       1.0  0.058240296962422285  0.7147774805986614  0.017212022362512073  1.0000
  H   H11       1.0  0.9619842613327305  0.8440768981415371  0.987342544357225  1.0000
  H   H12       1.0  0.08136911302201044  0.8838490417390994  0.921039624664727  1.0000
  C   C18       1.0  0.17021260409851505  0.5788485180553278  0.1814288484247646  1.0000
  C   C19       1.0  0.1524064712522421  0.42901408438659705  0.19113535942443716  1.0000
  C   C20       1.0  0.14357160328422935  0.3546703194462191  0.07899467424631035  1.0000
  C   C21       1.0  0.15240651499190655  0.42901416586098295  0.9560274601846812  1.0000
  C   C22       1.0  0.17021260113443137  0.5788484435892589  0.9439138677311885  1.0000
  C   C23       1.0  0.17902888813864065  0.6530353117144763  0.05726953059034256  1.0000
  Cl  Cl1       1.0  0.12132751637418826  0.16749151631400672  0.09262395517223297  1.0000
  H   H13       1.0  0.17692042385437623  0.6352885631074046  0.5050755121651711  1.0000
  H   H14       1.0  0.14532456954538223  0.36942143117814874  0.28552109522691044  1.0000
  H   H15       1.0  0.14532463689085523  0.36942141059679523  0.8703201291943143  1.0000
  H   H16       1.0  0.19276146891223567  0.7685921241886238  0.048855252954543175  1.0000
  H   H17       1.0  0.17692024000515927  0.6352885503318146  0.6120478817858697  1.0000
  Zn  Zn1       1.0  0.06439477031161835  0.578844717555896  0.5627090790180718  1.0000
  Zn  Zn2       1.0  0.27602116920186215  0.5788515841146072  0.5626330127585852  1.0000
  C   C24       1.0  0.17017178648600906  0.5731014567387622  0.7998057641864943  1.0000
  C   C25       1.0  0.17024647622173397  0.5845966652190506  0.3255364485086816  1.0000
  C   C26       1.0  0.17197946169673783  0.8423263881477091  0.5566764188914797  1.0000
  C   C27       1.0  0.1684387171421673  0.3153700005915614  0.568665868449131  1.0000
  O   O2        1.0  0.25056891717094154  0.5865221081183247  0.37387142840915755  1.0000
  O   O3        1.0  0.25046887827438274  0.5711801371027831  0.7514126814260905  1.0000
  O   O4        1.0  0.2519275162359369  0.7885826739942718  0.5550840106323633  1.0000
  O   O5        1.0  0.24911020706503284  0.36911958154426827  0.5702000018542777  1.0000
  O   O6        1.0  0.09130566023075493  0.7885767201254623  0.5551420899415033  1.0000
  O   O7        1.0  0.08984703392034477  0.5711759164517425  0.7514706861089198  1.0000
  O   O8        1.0  0.08994707254310419  0.5865178371961117  0.37392787236560765  1.0000
  O   O9        1.0  0.08848836236385638  0.3691153003038501  0.5702565431784596  1.0000
