data_image0
_chemical_formula_structural       NC9NC3OH6C10IC2H7C6OCH6Zn2C4O8
_chemical_formula_sum              "N2 C35 O10 H19 I1 Zn2"
_cell_length_a       15.78231758774541
_cell_length_b       10.299770258652044
_cell_length_c       10.300312196595936
_cell_angle_alpha    85.55987726118238
_cell_angle_beta     90.08934895001595
_cell_angle_gamma    89.64982520104654

_space_group_name_H-M_alt    "P 1"
_space_group_IT_number       1

loop_
  _space_group_symop_operation_xyz
  'x, y, z'

loop_
  _atom_site_type_symbol
  _atom_site_label
  _atom_site_symmetry_multiplicity
  _atom_site_fract_x
  _atom_site_fract_y
  _atom_site_fract_z
  _atom_site_occupancy
  N   N1        1.0  0.798064448507517  0.41330907668615935  0.5700519240864459  1.0000
  C   C1        1.0  0.7495177062576495  0.33124560875658243  0.5941279001019486  1.0000
  C   C2        1.0  0.6892451266336725  0.22938489771385773  0.6240123888712097  1.0000
  C   C3        1.0  0.7088847824636676  0.10143143306293488  0.6614727185708532  1.0000
  C   C4        1.0  0.632143093844541  0.03942017241319263  0.67970200654922  1.0000
  C   C5        1.0  0.5703794157223331  0.13412037883511396  0.6520183525667502  1.0000
  C   C6        1.0  0.47728530198606006  0.11661175455354521  0.6572283967283499  1.0000
  C   C7        1.0  0.42355943237872234  0.22396631465403738  0.6256804850192674  1.0000
  C   C8        1.0  0.3353503786727888  0.209609662231119  0.6299597565091319  1.0000
  C   C9        1.0  0.2809285707103489  0.3200877592599758  0.5974856961055981  1.0000
  N   N2        1.0  0.2371863292366999  0.4088978957070474  0.5713794538157347  1.0000
  C   C10       1.0  0.3001858788578136  0.08773866742852966  0.6658359260941695  1.0000
  C   C11       1.0  0.3529808560350137  0.9806060596984547  0.6973229701658679  1.0000
  C   C12       1.0  0.44100417686322163  0.9945683118986314  0.6931599853243544  1.0000
  O   O1        1.0  0.6068579490912469  0.24635243692208308  0.6191121720235259  1.0000
  H   H1        1.0  0.7713374525387915  0.05828093644144671  0.6740548395789464  1.0000
  H   H2        1.0  0.6233926756170853  0.9374573976357509  0.7095683840405874  1.0000
  H   H3        1.0  0.45018188576695306  0.3188035582908342  0.5977577424594607  1.0000
  H   H4        1.0  0.23206741294618174  0.07557932897105775  0.6694581242392126  1.0000
  H   H5        1.0  0.32562820309144963  0.8864171726614066  0.7250552419313907  1.0000
  H   H6        1.0  0.48007540902447715  0.909711741626671  0.7181081909612501  1.0000
  C   C13       1.0  0.017549581280595455  0.029739001089008624  0.570712354540061  1.0000
  C   C14       1.0  0.02382935530540364  0.03924199935373739  0.4343450584515786  1.0000
  C   C15       1.0  0.02709256510127656  0.9269171438372892  0.36525604764889086  1.0000
  C   C16       1.0  0.02399078268967524  0.8039525823417274  0.43436316141353454  1.0000
  C   C17       1.0  0.017709269120653508  0.7924578886514002  0.570730284246158  1.0000
  C   C18       1.0  0.01452430916105696  0.9059077456429008  0.6381413042818393  1.0000
  C   C19       1.0  0.03373654345779453  0.938023852873518  0.22099264761309254  1.0000
  C   C20       1.0  0.08795185704088833  0.8546455264142537  0.15721430484407303  1.0000
  C   C21       1.0  0.09411992206496617  0.865312041759505  0.021422120390494945  1.0000
  C   C22       1.0  0.04631898867157844  0.959057752597786  0.9477647737802011  1.0000
  I   I1        1.0  0.05575105546127032  0.9748254771081998  0.7429395356374208  1.0000
  C   C23       1.0  0.9922591087519954  0.042340287321396934  0.010024915696796418  1.0000
  C   C24       1.0  0.9859212533826462  0.03210082554637061  0.14579805846776983  1.0000
  H   H7        1.0  0.027366461318955242  0.13421787756071102  0.3816683545459225  1.0000
  H   H8        1.0  0.025317375539415363  0.7171069297971734  0.38143918715199954  1.0000
  H   H9        1.0  0.00967898134232281  0.8978083940159637  0.7433423424222619  1.0000
  H   H10       1.0  0.1263649084524573  0.7823910564660682  0.2124052720696527  1.0000
  H   H11       1.0  0.13622964922443181  0.8008832611145671  0.9735557773172582  1.0000
  H   H12       1.0  0.9549670258374843  0.11482275404352561  0.9532742823136625  1.0000
  H   H13       1.0  0.9428448110112739  0.09655979998979736  0.19187122511980848  1.0000
  C   C25       1.0  0.01760549849657698  0.4111129041247922  0.18937911865631157  1.0000
  C   C26       1.0  0.9346119770090566  0.4613527970746484  0.1842372807514245  1.0000
  C   C27       1.0  0.8928515165418718  0.4866324668894866  0.06407067499023422  1.0000
  C   C28       1.0  0.9347098987940329  0.46129361139647396  0.9490959028949844  1.0000
  C   C29       1.0  0.01765337446675396  0.411084019180142  0.9520635115951736  1.0000
  C   C30       1.0  0.05866961042503435  0.3862548117469624  0.0727491434560592  1.0000
  O   O2        1.0  0.8100098702488849  0.5367806477163379  0.054636472815545276  1.0000
  C   C31       1.0  0.7596834513037511  0.5672459183787817  0.16293647303760128  1.0000
  H   H14       1.0  0.902750489748915  0.480640041538338  0.27366458729211707  1.0000
  H   H15       1.0  0.9018957551012069  0.4811576971997479  0.8572087301504028  1.0000
  H   H16       1.0  0.12266615136970155  0.3475147313044389  0.07591040600382759  1.0000
  H   H17       1.0  0.7493760474980756  0.4783723160685871  0.2290074262141841  1.0000
  H   H18       1.0  0.6972447751346667  0.6050430044899352  0.12716672376596594  1.0000
  H   H19       1.0  0.7910874199105743  0.6433490072814709  0.21633529470677182  1.0000
  Zn  Zn1       1.0  0.9247855338300586  0.41203263592232076  0.5704425133500428  1.0000
  Zn  Zn2       1.0  0.11046521386843274  0.4101637367224577  0.5709994798784432  1.0000
  C   C32       1.0  0.017641340216739913  0.4059158738448212  0.8078996903102852  1.0000
  C   C33       1.0  0.01761143544917231  0.41628211698719897  0.3335424364962445  1.0000
  C   C34       1.0  0.017674407026649686  0.6482880442355392  0.5655520534875917  1.0000
  C   C35       1.0  0.017578304957418526  0.1739083869472783  0.5758901423260323  1.0000
  O   O3        1.0  0.08807789765519541  0.41730204886360894  0.3821363286733619  1.0000
  O   O4        1.0  0.08810145859591056  0.4034765110222329  0.7597281489980595  1.0000
  O   O5        1.0  0.08812721065306701  0.5991951133368955  0.5640307147963428  1.0000
  O   O6        1.0  0.08805208223397676  0.22158345648047728  0.5778336653173977  1.0000
  O   O7        1.0  0.9471986021011515  0.6006129168034791  0.5636083277141924  1.0000
  O   O8        1.0  0.9471728503624774  0.404895874777197  0.7593056927119188  1.0000
  O   O9        1.0  0.9471492893706592  0.41872136742171645  0.38171231109506326  1.0000
  O   O10       1.0  0.9471234739501405  0.22300276574623168  0.5774097450998843  1.0000
