data_image0
_chemical_formula_structural       NC8ONC5NC3OH9C12H9C14H9Zn2C4O8
_chemical_formula_sum              "N3 C46 O10 H27 Zn2"
_cell_length_a       21.006696871193384
_cell_length_b       14.99405791820965
_cell_length_c       14.390576945434875
_cell_angle_alpha    84.0723446781622
_cell_angle_beta     91.87383102147531
_cell_angle_gamma    90.62691223820616

_space_group_name_H-M_alt    "P 1"
_space_group_IT_number       1

loop_
  _space_group_symop_operation_xyz
  'x, y, z'

loop_
  _atom_site_type_symbol
  _atom_site_label
  _atom_site_symmetry_multiplicity
  _atom_site_fract_x
  _atom_site_fract_y
  _atom_site_fract_z
  _atom_site_occupancy
  N   N1        1.0  0.5733961722390791  0.011481280569858298  0.9673139828792632  1.0000
  C   C1        1.0  0.519843080391443  0.0008013609113737235  0.9500025528668934  1.0000
  C   C2        1.0  0.4532295326098856  0.9875176172556845  0.928468965824331  1.0000
  C   C3        1.0  0.4319597353679588  0.9068145607445833  0.8968684637492665  1.0000
  C   C4        1.0  0.36725041332776637  0.8938330255858867  0.8760141450029932  1.0000
  C   C5        1.0  0.3231107457734427  0.9617767825629183  0.8858024429722906  1.0000
  C   C6        1.0  0.3447790016697019  0.04223296946676893  0.9186586314090512  1.0000
  C   C7        1.0  0.40949474328149726  0.0550937627783841  0.9395121457597968  1.0000
  C   C8        1.0  0.25447896697695377  0.9471267962011798  0.8647519957589909  1.0000
  O   O1        1.0  0.23190144776442911  0.8686744415170938  0.8775929403513281  1.0000
  N   N2        1.0  0.2130109960990577  0.020419887921770522  0.8317759486675005  1.0000
  C   C9        1.0  0.14797319049716381  0.019069111030387772  0.8598706479376705  1.0000
  C   C10       1.0  0.1272277403704133  0.08223199752016264  0.917416961618396  1.0000
  C   C11       1.0  0.0639250362286256  0.08161812010335966  0.9446614258858683  1.0000
  C   C12       1.0  0.020837335784363704  0.01797296534297901  0.914297365536531  1.0000
  C   C13       1.0  0.9556612548998823  0.017359003100597466  0.9422975191169138  1.0000
  N   N3        1.0  0.9032624477715937  0.01686530586046642  0.964808546394526  1.0000
  C   C14       1.0  0.04129770014317981  0.9550501731576261  0.8564500287039294  1.0000
  C   C15       1.0  0.10460916524540248  0.9556559939512905  0.829222646109542  1.0000
  C   C16       1.0  0.235225993908127  0.09233424165061031  0.7666343273165708  1.0000
  O   O2        1.0  0.19945403571980655  0.15698961696722025  0.7379410294578728  1.0000
  H   H1        1.0  0.4653626835102312  0.8539250599320164  0.8883872659968206  1.0000
  H   H2        1.0  0.35174396120787377  0.8309888035579844  0.851484464133464  1.0000
  H   H3        1.0  0.31162425885189043  0.09474924061974767  0.929289931630674  1.0000
  H   H4        1.0  0.4253611709293406  0.11755066108303837  0.9646268271534134  1.0000
  H   H5        1.0  0.1602680892223541  0.13157282622277267  0.9412711285582747  1.0000
  H   H6        1.0  0.048605221610693555  0.13067822143558105  0.9893078913582971  1.0000
  H   H7        1.0  0.008323622484465902  0.9057339485539132  0.8322717403543192  1.0000
  H   H8        1.0  0.11979167756265113  0.9072725922571757  0.7837975964087363  1.0000
  H   H9        1.0  0.2829604194418225  0.09132188463130819  0.740654165795696  1.0000
  C   C17       1.0  0.7383586327795638  0.7522058220485434  0.9660514245576237  1.0000
  C   C18       1.0  0.7767710176276975  0.6987684941519816  0.03093340081232342  1.0000
  C   C19       1.0  0.7767401426995347  0.6055433755027353  0.030972219826057027  1.0000
  C   C20       1.0  0.7383501948535542  0.5637035067553201  0.9661011233825423  1.0000
  C   C21       1.0  0.6999738029335728  0.6172405672845479  0.9012215320684223  1.0000
  C   C22       1.0  0.6999640304420991  0.7104638144216296  0.9012323837080198  1.0000
  C   C23       1.0  0.7383354881254807  0.4646285740235674  0.9661088902848574  1.0000
  C   C24       1.0  0.7371883951099715  0.4253004721918489  0.8815197141630984  1.0000
  C   C25       1.0  0.7372009413895552  0.332076306499508  0.8815188411056293  1.0000
  C   C26       1.0  0.7383062966957072  0.2761337895578516  0.9660791029489109  1.0000
  C   C27       1.0  0.7394272422485785  0.3153586076851729  0.050703438735647754  1.0000
  C   C28       1.0  0.7394684401992455  0.4085800217987475  0.050704119190444596  1.0000
  H   H10       1.0  0.807030069722197  0.7289725404605494  0.08161464150107944  1.0000
  H   H11       1.0  0.8074499969116813  0.5662509122357379  0.08103113543407081  1.0000
  H   H12       1.0  0.6692542832902217  0.5869340028054382  0.8511710317981416  1.0000
  H   H13       1.0  0.6697100752518371  0.749760772181644  0.8505366967006327  1.0000
  H   H14       1.0  0.7371442182489166  0.4666667244142321  0.8152294375666321  1.0000
  H   H15       1.0  0.7365063844168125  0.30390554788819163  0.8151740985385367  1.0000
  H   H16       1.0  0.7370967266657357  0.07180477434636288  0.8805062260584328  1.0000
  H   H17       1.0  0.7401113276064897  0.274030350065354  0.11704197142818873  1.0000
  H   H18       1.0  0.7395237168435583  0.43681212915220774  0.11699191112915153  1.0000
  C   C29       1.0  0.7314498125675247  0.02093152329142689  0.6923342904437605  1.0000
  C   C30       1.0  0.7440795587897429  0.009002180817263112  0.5988245152996341  1.0000
  C   C31       1.0  0.7046594511598959  0.04658706790640399  0.5244820521690301  1.0000
  C   C32       1.0  0.6518442271134983  0.09697570011923418  0.5442434073815998  1.0000
  C   C33       1.0  0.6388073809219489  0.10995126873186117  0.6362249073057868  1.0000
  C   C34       1.0  0.6779919898406277  0.07271082910424244  0.7105277039890396  1.0000
  C   C35       1.0  0.6626283604092938  0.09118941689804497  0.8036752010465894  1.0000
  C   C36       1.0  0.6494478478335066  0.10709366360381445  0.8811921104818496  1.0000
  C   C37       1.0  0.7186430266050688  0.03307610482893053  0.4264015636085867  1.0000
  C   C38       1.0  0.7815593214930016  0.03800437126415115  0.39576437173472434  1.0000
  C   C39       1.0  0.7947096151121663  0.02533779600238129  0.3034693219323368  1.0000
  C   C40       1.0  0.745215077337852  0.007408096016153999  0.23979627229952727  1.0000
  C   C41       1.0  0.6823341430904448  0.0024668464679136193  0.2703513976250589  1.0000
  C   C42       1.0  0.6691803761477535  0.01520532875138314  0.3626316590750085  1.0000
  H   H19       1.0  0.7841255137425996  0.9685380246567981  0.5836978305493078  1.0000
  H   H20       1.0  0.6210996718554447  0.1276846547601398  0.48832646246156  1.0000
  H   H21       1.0  0.5980347077999053  0.14995319424243017  0.6494383937184964  1.0000
  H   H22       1.0  0.6379045910605479  0.12102222863139733  0.949225645907362  1.0000
  H   H23       1.0  0.8205914399123815  0.05284771660721921  0.44289223621093177  1.0000
  H   H24       1.0  0.8436595752556151  0.02982583947064832  0.2819622506431132  1.0000
  H   H25       1.0  0.6431841833471912  0.988526925967039  0.22305045185393513  1.0000
  H   H26       1.0  0.6203178708921661  0.009900216230280362  0.3844444121684458  1.0000
  H   H27       1.0  0.7183959012249795  0.9669085548458061  0.0123784278350596  1.0000
  Zn  Zn1       1.0  0.668588591056108  0.013032473747891076  0.9665963466590661  1.0000
  Zn  Zn2       1.0  0.8080702153503228  0.015306627731285658  0.9655338031857599  1.0000
  C   C43       1.0  0.7426120992848704  0.006410421067865271  0.13631403314976231  1.0000
  C   C44       1.0  0.7340482324444985  0.02192982857475023  0.7958161966417898  1.0000
  C   C45       1.0  0.7382195011530233  0.17719196035900178  0.9623593736532916  1.0000
  C   C46       1.0  0.73844078433768  0.8511472154872516  0.9697709061408517  1.0000
  O   O3        1.0  0.7878528357860292  0.023124006658633563  0.830142439764471  1.0000
  O   O4        1.0  0.7946708147179263  0.006941606880857879  0.1011810757495045  1.0000
  O   O5        1.0  0.7911230469889872  0.14484982410934544  0.9607114629328475  1.0000
  O   O6        1.0  0.7914005541613599  0.8852157967621733  0.9706119830524936  1.0000
  O   O7        1.0  0.6852582046467149  0.14312330394203832  0.9615181671500233  1.0000
  O   O8        1.0  0.6888059710159633  0.005216159734947599  0.10198773032177988  1.0000
  O   O9        1.0  0.6819879639505863  0.021398556110293857  0.8309479736253667  1.0000
  O   O10       1.0  0.6855356840811692  0.8834903381068417  0.9714175867997152  1.0000
