data_image0
_chemical_formula_structural       Ce8H16C56N16O48
_chemical_formula_sum              "Ce8 H16 C56 N16 O48"
_cell_length_a       11.036
_cell_length_b       12.056
_cell_length_c       19.561
_cell_angle_alpha    90.0
_cell_angle_beta     90.0
_cell_angle_gamma    90.0

_space_group_name_H-M_alt    "P 1"
_space_group_IT_number       1

loop_
  _space_group_symop_operation_xyz
  'x, y, z'

loop_
  _atom_site_type_symbol
  _atom_site_label
  _atom_site_symmetry_multiplicity
  _atom_site_fract_x
  _atom_site_fract_y
  _atom_site_fract_z
  _atom_site_occupancy
  Ce  Ce1       1.0  0.3643099999999999  0.84017  0.87879  1.0000
  Ce  Ce2       1.0  0.88269  0.02071  0.66444  1.0000
  Ce  Ce3       1.0  0.63569  0.15983  0.3787899999999999  1.0000
  Ce  Ce4       1.0  0.11730999999999998  0.97929  0.16444  1.0000
  Ce  Ce5       1.0  0.13569  0.34017  0.87879  1.0000
  Ce  Ce6       1.0  0.6173099999999999  0.52071  0.66444  1.0000
  Ce  Ce7       1.0  0.86431  0.65983  0.3787899999999999  1.0000
  Ce  Ce8       1.0  0.38269  0.4792899999999999  0.16444  1.0000
  H   H1        1.0  0.1534  0.9899  0.7699  1.0000
  H   H2        1.0  0.2686  0.7358  0.6115999999999998  1.0000
  H   H3        1.0  0.6301  0.8993  0.7676999999999998  1.0000
  H   H4        1.0  0.4931  0.2532  0.7779999999999999  1.0000
  H   H5        1.0  0.8465999999999999  0.010100000000000001  0.2699  1.0000
  H   H6        1.0  0.7313999999999999  0.2642  0.1116  1.0000
  H   H7        1.0  0.3699  0.1007  0.2677  1.0000
  H   H8        1.0  0.5069  0.7467999999999999  0.27799999999999997  1.0000
  H   H9        1.0  0.3466  0.4899  0.7699  1.0000
  H   H10       1.0  0.23139999999999997  0.2358  0.6115999999999998  1.0000
  H   H11       1.0  0.8698999999999999  0.3993  0.7676999999999998  1.0000
  H   H12       1.0  0.006899999999999999  0.7532  0.7779999999999999  1.0000
  H   H13       1.0  0.6534  0.5101  0.2699  1.0000
  H   H14       1.0  0.7685999999999998  0.7642  0.1116  1.0000
  H   H15       1.0  0.1301  0.6007  0.2677  1.0000
  H   H16       1.0  0.9930999999999999  0.2468  0.27799999999999997  1.0000
  C   C1        1.0  0.1741  0.9352  0.7384999999999999  1.0000
  C   C2        1.0  0.1373  0.8474999999999999  0.6367999999999999  1.0000
  C   C3        1.0  0.24269999999999994  0.7855  0.6449  1.0000
  C   C4        1.0  0.30709999999999993  0.8009999999999998  0.7046  1.0000
  C   C5        1.0  0.4144999999999999  0.7259  0.7223999999999999  1.0000
  C   C6        1.0  0.0544  0.8271999999999999  0.576  1.0000
  C   C7        1.0  0.6017  0.9719  0.769  1.0000
  C   C8        1.0  0.6253  0.1528  0.7397999999999998  1.0000
  C   C9        1.0  0.5201  0.1803  0.7748  1.0000
  C   C10       1.0  0.4582  0.0945  0.8041999999999998  1.0000
  C   C11       1.0  0.33999999999999997  0.11359999999999998  0.8424999999999999  1.0000
  C   C12       1.0  0.703  0.2427  0.7055  1.0000
  C   C13       1.0  0.8215  0.1159  0.5102  1.0000
  C   C14       1.0  0.7001999999999999  0.0634  0.5328  1.0000
  C   C15       1.0  0.8259  0.0648  0.23849999999999996  1.0000
  C   C16       1.0  0.8627  0.1525  0.13679999999999998  1.0000
  C   C17       1.0  0.7573  0.2145  0.1449  1.0000
  C   C18       1.0  0.6928999999999998  0.199  0.20459999999999995  1.0000
  C   C19       1.0  0.5855  0.2741  0.22239999999999996  1.0000
  C   C20       1.0  0.9456  0.1728  0.076  1.0000
  C   C21       1.0  0.39829999999999993  0.028100000000000003  0.269  1.0000
  C   C22       1.0  0.3746999999999999  0.8472  0.2398  1.0000
  C   C23       1.0  0.47989999999999994  0.8197  0.2748  1.0000
  C   C24       1.0  0.5418  0.9054999999999999  0.3042  1.0000
  C   C25       1.0  0.66  0.8863999999999999  0.3425  1.0000
  C   C26       1.0  0.29699999999999993  0.7573  0.20549999999999996  1.0000
  C   C27       1.0  0.1785  0.8841  0.0102  1.0000
  C   C28       1.0  0.2998  0.9366  0.0328  1.0000
  C   C29       1.0  0.3259  0.4352  0.7384999999999999  1.0000
  C   C30       1.0  0.3627  0.3475  0.6367999999999999  1.0000
  C   C31       1.0  0.2573  0.2855  0.6449  1.0000
  C   C32       1.0  0.19289999999999993  0.301  0.7046  1.0000
  C   C33       1.0  0.0855  0.22589999999999996  0.7223999999999999  1.0000
  C   C34       1.0  0.4455999999999999  0.3272  0.576  1.0000
  C   C35       1.0  0.8982999999999998  0.47189999999999993  0.769  1.0000
  C   C36       1.0  0.8746999999999998  0.6528  0.7397999999999998  1.0000
  C   C37       1.0  0.9798999999999999  0.6802999999999999  0.7748  1.0000
  C   C38       1.0  0.0418  0.5945  0.8041999999999998  1.0000
  C   C39       1.0  0.16  0.6136  0.8424999999999999  1.0000
  C   C40       1.0  0.797  0.7426999999999999  0.7055  1.0000
  C   C41       1.0  0.6785  0.6159  0.5102  1.0000
  C   C42       1.0  0.7997999999999998  0.5634  0.5328  1.0000
  C   C43       1.0  0.6740999999999999  0.5648  0.23849999999999996  1.0000
  C   C44       1.0  0.6372999999999999  0.6525  0.13679999999999998  1.0000
  C   C45       1.0  0.7427  0.7144999999999999  0.1449  1.0000
  C   C46       1.0  0.8070999999999999  0.6989999999999998  0.20459999999999995  1.0000
  C   C47       1.0  0.9144999999999998  0.7741  0.22239999999999996  1.0000
  C   C48       1.0  0.5544  0.6728  0.076  1.0000
  C   C49       1.0  0.10169999999999998  0.5281  0.269  1.0000
  C   C50       1.0  0.1253  0.3472  0.2398  1.0000
  C   C51       1.0  0.020099999999999996  0.3197  0.2748  1.0000
  C   C52       1.0  0.9582  0.4055  0.3042  1.0000
  C   C53       1.0  0.84  0.38639999999999997  0.3425  1.0000
  C   C54       1.0  0.203  0.2573  0.20549999999999996  1.0000
  C   C55       1.0  0.3215  0.3840999999999999  0.0102  1.0000
  C   C56       1.0  0.2002  0.4366  0.0328  1.0000
  N   N1        1.0  0.2742  0.8752  0.7509999999999999  1.0000
  N   N2        1.0  0.10169999999999998  0.922  0.6837  1.0000
  N   N3        1.0  0.49949999999999994  0.9905  0.8040999999999999  1.0000
  N   N4        1.0  0.6659999999999999  0.0473  0.736  1.0000
  N   N5        1.0  0.7257999999999999  0.1248  0.251  1.0000
  N   N6        1.0  0.8982999999999998  0.078  0.1837  1.0000
  N   N7        1.0  0.5005  0.0095  0.3041  1.0000
  N   N8        1.0  0.334  0.9527  0.236  1.0000
  N   N9        1.0  0.22579999999999997  0.3751999999999999  0.7509999999999999  1.0000
  N   N10       1.0  0.39829999999999993  0.4219999999999999  0.6837  1.0000
  N   N11       1.0  0.0005  0.49049999999999994  0.8040999999999999  1.0000
  N   N12       1.0  0.8339999999999999  0.5473  0.736  1.0000
  N   N13       1.0  0.7741999999999998  0.6248  0.251  1.0000
  N   N14       1.0  0.6017  0.578  0.1837  1.0000
  N   N15       1.0  0.9995  0.5095  0.3041  1.0000
  N   N16       1.0  0.166  0.4527  0.236  1.0000
  O   O1        1.0  0.4557  0.7361999999999999  0.7816  1.0000
  O   O2        1.0  0.44939999999999997  0.6598  0.6774  1.0000
  O   O3        1.0  0.9594999999999999  0.8887999999999999  0.5735999999999999  1.0000
  O   O4        1.0  0.086  0.7582999999999999  0.5353  1.0000
  O   O5        1.0  0.2912  0.0337  0.8733  1.0000
  O   O6        1.0  0.2959  0.2103  0.8361999999999999  1.0000
  O   O7        1.0  0.7991  0.2118  0.6771  1.0000
  O   O8        1.0  0.6659  0.3391  0.7089  1.0000
  O   O9        1.0  0.8256999999999999  0.1515  0.4491  1.0000
  O   O10       1.0  0.9073999999999999  0.11769999999999999  0.5522  1.0000
  O   O11       1.0  0.6108  0.0778  0.4952999999999999  1.0000
  O   O12       1.0  0.7049  0.009300000000000001  0.5878  1.0000
  O   O13       1.0  0.5442999999999999  0.2638  0.2816  1.0000
  O   O14       1.0  0.5506  0.3402  0.1774  1.0000
  O   O15       1.0  0.0405  0.1112  0.07359999999999998  1.0000
  O   O16       1.0  0.914  0.24169999999999997  0.03529999999999999  1.0000
  O   O17       1.0  0.7087999999999999  0.9663  0.3733  1.0000
  O   O18       1.0  0.7040999999999998  0.7897  0.3362  1.0000
  O   O19       1.0  0.20089999999999997  0.7882  0.1771  1.0000
  O   O20       1.0  0.3341  0.6609  0.2089  1.0000
  O   O21       1.0  0.1743  0.8485  0.9491  1.0000
  O   O22       1.0  0.09259999999999999  0.8822999999999998  0.052199999999999996  1.0000
  O   O23       1.0  0.3892  0.9221999999999999  0.9952999999999999  1.0000
  O   O24       1.0  0.2951  0.9907  0.08779999999999999  1.0000
  O   O25       1.0  0.04429999999999999  0.2362  0.7816  1.0000
  O   O26       1.0  0.050599999999999985  0.1598  0.6774  1.0000
  O   O27       1.0  0.5404999999999999  0.3888  0.5735999999999999  1.0000
  O   O28       1.0  0.414  0.2583  0.5353  1.0000
  O   O29       1.0  0.20879999999999996  0.5337  0.8733  1.0000
  O   O30       1.0  0.2041  0.7103  0.8361999999999999  1.0000
  O   O31       1.0  0.7009  0.7117999999999999  0.6771  1.0000
  O   O32       1.0  0.8340999999999997  0.8391  0.7089  1.0000
  O   O33       1.0  0.6743  0.6515  0.4491  1.0000
  O   O34       1.0  0.5926  0.6177  0.5522  1.0000
  O   O35       1.0  0.8892  0.5778  0.4952999999999999  1.0000
  O   O36       1.0  0.7950999999999998  0.5093  0.5878  1.0000
  O   O37       1.0  0.9556999999999999  0.7637999999999998  0.2816  1.0000
  O   O38       1.0  0.9494  0.8402  0.1774  1.0000
  O   O39       1.0  0.4595  0.6112  0.07359999999999998  1.0000
  O   O40       1.0  0.586  0.7417  0.03529999999999999  1.0000
  O   O41       1.0  0.7911999999999999  0.46629999999999994  0.3733  1.0000
  O   O42       1.0  0.7958999999999999  0.2897  0.3362  1.0000
  O   O43       1.0  0.2991  0.2882  0.1771  1.0000
  O   O44       1.0  0.1659  0.1609  0.2089  1.0000
  O   O45       1.0  0.3257  0.3485  0.9491  1.0000
  O   O46       1.0  0.40739999999999993  0.3823  0.052199999999999996  1.0000
  O   O47       1.0  0.1108  0.4222  0.9952999999999999  1.0000
  O   O48       1.0  0.20489999999999994  0.4907  0.08779999999999999  1.0000
