data_image0
_chemical_formula_structural       NC5NC3OH4C7NH5C6H6Zn2C4O8
_chemical_formula_sum              "N3 C25 O9 H15 Zn2"
_cell_length_a       13.84702359539666
_cell_length_b       9.275154477615127
_cell_length_c       10.681121600428288
_cell_angle_alpha    85.78691594316618
_cell_angle_beta     89.98558129558303
_cell_angle_gamma    89.43463511314383

_space_group_name_H-M_alt    "P 1"
_space_group_IT_number       1

loop_
  _space_group_symop_operation_xyz
  'x, y, z'

loop_
  _atom_site_type_symbol
  _atom_site_label
  _atom_site_symmetry_multiplicity
  _atom_site_fract_x
  _atom_site_fract_y
  _atom_site_fract_z
  _atom_site_occupancy
  N   N1        1.0  0.8989332999565649  0.5779342417779514  0.6238065433633004  1.0000
  C   C1        1.0  0.8268464261982207  0.5692668568852003  0.6785608591452406  1.0000
  C   C2        1.0  0.7370712348056578  0.558474132045109  0.7467415191816674  1.0000
  C   C3        1.0  0.6494182664182337  0.5689005888673653  0.6808741070678672  1.0000
  C   C4        1.0  0.5616248901328055  0.5585952746437894  0.7459758855733647  1.0000
  C   C5        1.0  0.47170298247214976  0.5693301218803406  0.6781609461881066  1.0000
  N   N2        1.0  0.39941740357354605  0.5779601148854527  0.6236431414305674  1.0000
  C   C6        1.0  0.5614793351940388  0.5378324037107703  0.8771407673074079  1.0000
  C   C7        1.0  0.6487521391329296  0.5273962278239994  0.9430672488067541  1.0000
  C   C8        1.0  0.7368613829858829  0.5376351288216228  0.8783863147062965  1.0000
  O   O1        1.0  0.8238546728484839  0.5271811368760408  0.9444268930299325  1.0000
  H   H1        1.0  0.6495356093116235  0.5849859926867556  0.5792588434277834  1.0000
  H   H2        1.0  0.4939781527277407  0.5297215749186626  0.9283788626339036  1.0000
  H   H3        1.0  0.6478562318449198  0.5113427288615582  0.04448158205698139  1.0000
  H   H4        1.0  0.8254859321681055  0.5121565551516537  0.03934054392834963  1.0000
  C   C9        1.0  0.1519745415956435  0.15455802383515116  0.6222747856281691  1.0000
  C   C10       1.0  0.12546662296268907  0.23773573003885431  0.5118694959412136  1.0000
  C   C11       1.0  0.09110358597745094  0.17169552096270313  0.4073155626702952  1.0000
  C   C12       1.0  0.08268266458974649  0.021574561233975498  0.4119356224207796  1.0000
  C   C13       1.0  0.110085643854275  0.937189226072148  0.5198238218588598  1.0000
  C   C14       1.0  0.1463854629468167  0.0013252532408727404  0.625185691994046  1.0000
  C   C15       1.0  0.0633108585424782  0.2584549729681007  0.2955799165662434  1.0000
  N   N3        1.0  0.040973214904542976  0.3281936667408407  0.20577307773422993  1.0000
  H   H5        1.0  0.17069956786735174  0.23123007276300517  0.9296594012566497  1.0000
  H   H6        1.0  0.12941056603013879  0.35469533393114205  0.508152519202727  1.0000
  H   H7        1.0  0.05575793501788583  0.969446587699919  0.3315795262287917  1.0000
  H   H8        1.0  0.10501454761735632  0.8207213678884259  0.519715269834019  1.0000
  H   H9        1.0  0.16309165001124293  0.7025558871454924  0.831140769507871  1.0000
  C   C16       1.0  0.149180021109409  0.5779416074589204  0.25598499182593204  1.0000
  C   C17       1.0  0.08058686525093296  0.49775179195676045  0.19430942163434595  1.0000
  C   C18       1.0  0.08058680434588553  0.4977518844015363  0.06342728201894232  1.0000
  C   C19       1.0  0.149179944724412  0.5779416781306563  0.9914754277700224  1.0000
  C   C20       1.0  0.21771648753676903  0.6580650403025405  0.05315020781047353  1.0000
  C   C21       1.0  0.21771647532868665  0.658065017945165  0.1840425064006992  1.0000
  H   H10       1.0  0.21854587941746595  0.6590355445812723  0.5494986704555889  1.0000
  H   H11       1.0  0.026820311530004085  0.4348952246260233  0.2471478786524675  1.0000
  H   H12       1.0  0.026820290913010858  0.4348952924917902  0.018643849666821314  1.0000
  H   H13       1.0  0.2714900619977192  0.7209298905072493  0.000356112322142059  1.0000
  H   H14       1.0  0.271490013674454  0.7209298399624358  0.2287804796486903  1.0000
  H   H15       1.0  0.2185461841383798  0.6590350422763918  0.6875696429169449  1.0000
  Zn  Zn1       1.0  0.043362224958133806  0.5779378484492819  0.6237665967080505  1.0000
  Zn  Zn2       1.0  0.2549885323780454  0.5779447110567282  0.6236932676913685  1.0000
  C   C22       1.0  0.14921574195451015  0.5721979103948802  0.8524322584323711  1.0000
  C   C23       1.0  0.14913731432695365  0.5836864683530718  0.39502773433286326  1.0000
  C   C24       1.0  0.14743694306647748  0.8412682024959564  0.6196451410138637  1.0000
  C   C25       1.0  0.15091605243523265  0.3146144440288383  0.6278149125868772  1.0000
  O   O2        1.0  0.229434103823889  0.5856108104651638  0.441663899286966  1.0000
  O   O3        1.0  0.22953843026904577  0.5702776891721282  0.8057400742212313  1.0000
  O   O4        1.0  0.22810094503911826  0.78755535286699  0.6177628354269358  1.0000
  O   O5        1.0  0.23087151677202214  0.3683331570817996  0.6296410442455973  1.0000
  O   O6        1.0  0.06747916834647416  0.7875494024234386  0.6178188201722628  1.0000
  O   O7        1.0  0.06891664213847304  0.5702734709509618  0.8057959981494941  1.0000
  O   O8        1.0  0.06881231608925709  0.5856065420015346  0.4417183174199076  1.0000
  O   O9        1.0  0.07024972910150207  0.36832887830590094  0.6296955562326452  1.0000
