data_image0
_chemical_formula_structural       NC9NC3OH6C6H4C8H10Zn2C4O8
_chemical_formula_sum              "N2 C30 O9 H20 Zn2"
_cell_length_a       15.78231758774541
_cell_length_b       10.681118228259553
_cell_length_c       9.275657083861812
_cell_angle_alpha    85.85420768060796
_cell_angle_beta     89.58874472212383
_cell_angle_gamma    89.63144314392761

_space_group_name_H-M_alt    "P 1"
_space_group_IT_number       1

loop_
  _space_group_symop_operation_xyz
  'x, y, z'

loop_
  _atom_site_type_symbol
  _atom_site_label
  _atom_site_symmetry_multiplicity
  _atom_site_fract_x
  _atom_site_fract_y
  _atom_site_fract_z
  _atom_site_occupancy
  N   N1        1.0  0.805951563238399  0.35564531020312407  0.41263540096984463  1.0000
  C   C1        1.0  0.7572842201305447  0.27663284632474716  0.43936330617121033  1.0000
  C   C2        1.0  0.6968619435223008  0.17855917468992333  0.4725395222280333  1.0000
  C   C3        1.0  0.7163140102062191  0.055362441364553254  0.514126052665087  1.0000
  C   C4        1.0  0.6394809819552522  0.9956568548636688  0.534363263539549  1.0000
  C   C5        1.0  0.5778559050612045  0.0868367438671378  0.5036302917426472  1.0000
  C   C6        1.0  0.4847356409815509  0.06997943522614579  0.5094142072124133  1.0000
  C   C7        1.0  0.43116783756590205  0.17334244207836644  0.47439134948443745  1.0000
  C   C8        1.0  0.34293730023117186  0.1595198889753342  0.4791419697373523  1.0000
  C   C9        1.0  0.28867820466507577  0.2658902548589668  0.4430909504225713  1.0000
  N   N2        1.0  0.2450667703327605  0.35139829894193353  0.4141091529621388  1.0000
  C   C10       1.0  0.3075930037096964  0.042180497854242376  0.5189698296874827  1.0000
  C   C11       1.0  0.3602302165609217  0.9390312129199885  0.55392511493158  1.0000
  C   C12       1.0  0.4482744381060792  0.9524740319514884  0.5493035900591421  1.0000
  O   O1        1.0  0.6144992565713041  0.19489627675761276  0.46709954766297535  1.0000
  H   H1        1.0  0.7787037094580923  0.0138158287697656  0.5280940804822423  1.0000
  H   H2        1.0  0.6305809917452134  0.8974846717988105  0.5675193776463301  1.0000
  H   H3        1.0  0.4579302316897501  0.2646532707218907  0.4433929715078953  1.0000
  H   H4        1.0  0.23945635442649912  0.03047350306184659  0.5229910021464582  1.0000
  H   H5        1.0  0.33273857716538335  0.8483446346092739  0.58471204209144  1.0000
  H   H6        1.0  0.4872206626041953  0.8707725754548497  0.5769997948670856  1.0000
  C   C13       1.0  0.025513189652915047  0.9857717974946688  0.41337848321785786  1.0000
  C   C14       1.0  0.062125664630431295  0.9114149679462421  0.5279839178021634  1.0000
  C   C15       1.0  0.06212565201219772  0.7805327295985713  0.5279838518530359  1.0000
  C   C16       1.0  0.025513175109286294  0.7212622018700556  0.41337854548513486  1.0000
  C   C17       1.0  0.9889310088942056  0.7956077603971876  0.29886781804026263  1.0000
  C   C18       1.0  0.9889310215077416  0.9265000186349533  0.2988678765895185  1.0000
  H   H7        1.0  0.09082430028164351  0.9543132098689348  0.6178170217455348  1.0000
  H   H8        1.0  0.09082419623672483  0.7258091821659248  0.6178169959325173  1.0000
  H   H9        1.0  0.960228631423259  0.7527550454648563  0.20902298468639535  1.0000
  H   H10       1.0  0.9602286092730713  0.9811794846607073  0.20902297289046845  1.0000
  C   C19       1.0  0.02767147617179133  0.351608283446756  0.9900658779406709  1.0000
  C   C20       1.0  0.07156292140804577  0.44664663314276404  0.05515357035457513  1.0000
  C   C21       1.0  0.10797267471969496  0.5471172361032715  0.9715371872510423  1.0000
  C   C22       1.0  0.10174852150314284  0.5516829582439007  0.8208774119375062  1.0000
  C   C23       1.0  0.059687146463114356  0.45718759923912766  0.7543432576878112  1.0000
  C   C24       1.0  0.023354874220818035  0.35542567106353373  0.8366911776001174  1.0000
  C   C25       1.0  0.15578148698983663  0.6470787225760952  0.04289754526539437  1.0000
  C   C26       1.0  0.2488508026867403  0.610443787386326  0.061054509685574576  1.0000
  H   H11       1.0  0.9896381509522808  0.15219503429100723  0.2877652724481612  1.0000
  H   H12       1.0  0.07594386844837486  0.4442825229141136  0.17189329916103896  1.0000
  H   H13       1.0  0.13031372402326746  0.6279471375605059  0.754587054261791  1.0000
  H   H14       1.0  0.0575067131594995  0.46208900242164724  0.6373616198748567  1.0000
  H   H15       1.0  0.9233123692044795  0.21206390425533164  0.5685210171762836  1.0000
  H   H16       1.0  0.15114116947700584  0.738037313844814  0.9770416690731439  1.0000
  H   H17       1.0  0.12759969964076479  0.6615343046736704  0.15067945903854185  1.0000
  H   H18       1.0  0.2548827109582139  0.5212979988171249  0.1298229329829963  1.0000
  H   H19       1.0  0.27866867064135104  0.5986298218758344  0.9539797686966841  1.0000
  H   H20       1.0  0.28292509025422574  0.685288801131307  0.11373548083138973  1.0000
  Zn  Zn1       1.0  0.9326706805421684  0.3544164068999054  0.4130690115728015  1.0000
  Zn  Zn2       1.0  0.11834756445526978  0.35261703442150294  0.4136873262816042  1.0000
  C   C27       1.0  0.024168916341971367  0.34971520895869723  0.6766608379854759  1.0000
  C   C28       1.0  0.026851355519835512  0.35731979345505693  0.150095648106507  1.0000
  C   C29       1.0  0.02553809626504666  0.5822129752741483  0.4076341708620641  1.0000
  C   C30       1.0  0.025482111846423686  0.12482052351690753  0.4191223918724395  1.0000
  O   O2        1.0  0.09703952531913823  0.35854831249672836  0.2040377480733251  1.0000
  O   O3        1.0  0.09490520727782686  0.3471200612334959  0.6231876096133564  1.0000
  O   O4        1.0  0.09600987985861265  0.5348649638324421  0.40594666933980394  1.0000
  O   O5        1.0  0.0959347899304861  0.1708034189829013  0.42127858005176005  1.0000
  O   O6        1.0  0.9550833917045831  0.5362300229538735  0.4054777575840627  1.0000
  O   O7        1.0  0.9539787195117656  0.34848662459299273  0.6227186209965114  1.0000
  O   O8        1.0  0.9561130464459396  0.35991482440122885  0.20356702632998713  1.0000
  O   O9        1.0  0.9550083105027845  0.1721699224176496  0.4208079663849573  1.0000
