data_image0
_chemical_formula_structural       NC5NC3F3CH3C6ClH5C6BrH4Zn2C4O8
_chemical_formula_sum              "N2 C25 F3 H12 Cl1 Br1 Zn2 O8"
_cell_length_a       13.85151926108384
_cell_length_b       10.30297070629231
_cell_length_c       9.27656775626242
_cell_angle_alpha    86.12016662879066
_cell_angle_beta     90.18621463620289
_cell_angle_gamma    89.9983157295073

_space_group_name_H-M_alt    "P 1"
_space_group_IT_number       1

loop_
  _space_group_symop_operation_xyz
  'x, y, z'

loop_
  _atom_site_type_symbol
  _atom_site_label
  _atom_site_symmetry_multiplicity
  _atom_site_fract_x
  _atom_site_fract_y
  _atom_site_fract_z
  _atom_site_occupancy
  N   N1        1.0  0.9055918903177235  0.4068193876902242  0.4106559790912888  1.0000
  C   C1        1.0  0.8333984438194222  0.39919584263759944  0.4730929624252238  1.0000
  C   C2        1.0  0.7435841268856088  0.3897111103951254  0.550773501749784  1.0000
  C   C3        1.0  0.6558935906883675  0.39734695396142405  0.4752846090642231  1.0000
  C   C4        1.0  0.568532137338358  0.3897110983841507  0.5507734817006245  1.0000
  C   C5        1.0  0.47837919190445805  0.39919585800519664  0.4730930564483868  1.0000
  N   N2        1.0  0.40591370493460766  0.4068193545107141  0.4106560844938896  1.0000
  C   C6        1.0  0.5688523601544818  0.3735425395146676  0.701927198410746  1.0000
  C   C7        1.0  0.6565547789529322  0.3630462378244727  0.7786775666752086  1.0000
  C   C8        1.0  0.6569097570417864  0.35045986675655705  0.9416213899767651  1.0000
  F   F1        1.0  0.7379578915756438  0.2835636539721919  0.9931979513513821  1.0000
  F   F2        1.0  0.5760890771315382  0.28356362730053597  0.9931980506008293  1.0000
  F   F3        1.0  0.6570195836134077  0.47318068904239324  0.9933179733192385  1.0000
  C   C9        1.0  0.7439226870399527  0.37354245393688407  0.7019272180172722  1.0000
  H   H1        1.0  0.6556385753410702  0.4100094439524702  0.3582560423842449  1.0000
  H   H2        1.0  0.5008546317716246  0.3693892053170158  0.759551971984333  1.0000
  H   H3        1.0  0.8121713852031525  0.36938913212699775  0.7595519309618439  1.0000
  C   C10       1.0  0.15575740879837197  0.0255719902879179  0.4106622219741114  1.0000
  C   C11       1.0  0.2555054722194552  0.022673682781139123  0.43841538792541823  1.0000
  C   C12       1.0  0.30499779875183075  0.9042787751551099  0.4521856674071809  1.0000
  C   C13       1.0  0.255505471301142  0.7875657135136037  0.43841532016032136  1.0000
  C   C14       1.0  0.15575741928093056  0.788056932828031  0.4106623044570079  1.0000
  C   C15       1.0  0.10636961427097624  0.907653627901684  0.3969209740000325  1.0000
  Cl  Cl1       1.0  0.4296068953242411  0.9021616146054414  0.48685588468333924  1.0000
  H   H4        1.0  0.11818405857553939  0.353966843173799  0.40020728374223413  1.0000
  H   H5        1.0  0.29517770093550566  0.11204621886651277  0.4494533728019036  1.0000
  H   H6        1.0  0.29517766253167005  0.6968450251254289  0.44945326927950763  1.0000
  H   H7        1.0  0.02944088065031836  0.9089605630805333  0.37551685377447563  1.0000
  H   H8        1.0  0.11818405445997753  0.4609388788967879  0.40020755578423883  1.0000
  C   C16       1.0  0.15483591345177164  0.40308349190236803  0.9875354848674731  1.0000
  C   C17       1.0  0.0690458299448047  0.4343377835340705  0.05814631233337231  1.0000
  C   C18       1.0  0.9875457739585907  0.47628617069421475  0.9794453131315115  1.0000
  C   C19       1.0  0.9903049826268459  0.4878299004984523  0.8289494702117826  1.0000
  C   C20       1.0  0.07420241255004471  0.455173160171936  0.7566115800931117  1.0000
  C   C21       1.0  0.15667896709219464  0.41054543753050193  0.8337890082060864  1.0000
  Br  Br1       1.0  0.8787573421203725  0.5462869399989604  0.7216992309847374  1.0000
  H   H9        1.0  0.28764649728343694  0.28516258496242997  0.2783696862128719  1.0000
  H   H10       1.0  0.9224595230068863  0.5010391126865477  0.03576269293802902  1.0000
  H   H11       1.0  0.07405047146644095  0.4618048892099648  0.6395611171725601  1.0000
  H   H12       1.0  0.315526687865476  0.39713943005180646  0.5543942960700217  1.0000
  Zn  Zn1       1.0  0.04997397673529158  0.40681598544725484  0.4106643146672805  1.0000
  Zn  Zn2       1.0  0.2615316266470926  0.4068122709266202  0.41065949722015027  1.0000
  C   C22       1.0  0.15632840907928314  0.4039629045471111  0.6738289561197477  1.0000
  C   C23       1.0  0.1551795048141263  0.40966699113086946  0.1474949971384809  1.0000
  C   C24       1.0  0.1557399597186031  0.6438803895198819  0.40492042155602803  1.0000
  C   C25       1.0  0.1557678821522066  0.16974794703113297  0.41640360852366887  1.0000
  O   O1        1.0  0.23557984281341884  0.4118694000349505  0.2011770425085157  1.0000
  O   O2        1.0  0.23649543134887097  0.40175669334001646  0.6201428396386126  1.0000
  O   O3        1.0  0.2360191720305741  0.59549310985609  0.4029972954306118  1.0000
  O   O4        1.0  0.23605602970613226  0.21813299185478696  0.4183224786814924  1.0000
  O   O5        1.0  0.07544950148199224  0.5954952645217025  0.40300133320000286  1.0000
  O   O6        1.0  0.07592576062862877  0.40176040713520944  0.6201468005806008  1.0000
  O   O7        1.0  0.07501016838453323  0.4118730533133299  0.20117927108486833  1.0000
  O   O8        1.0  0.07548635550857075  0.21813663679987072  0.4183248152869341  1.0000
