data_image0
_chemical_formula_structural       NC5NC3OH4C9H8C9H10Zn2C4O8
_chemical_formula_sum              "N2 C30 O9 H22 Zn2"
_cell_length_a       13.84702359539666
_cell_length_b       9.275152443626249
_cell_length_c       10.29718717394978
_cell_angle_alpha    85.37052444745348
_cell_angle_beta     89.95979786321969
_cell_angle_gamma    90.5743638874884

_space_group_name_H-M_alt    "P 1"
_space_group_IT_number       1

loop_
  _space_group_symop_operation_xyz
  'x, y, z'

loop_
  _atom_site_type_symbol
  _atom_site_label
  _atom_site_symmetry_multiplicity
  _atom_site_fract_x
  _atom_site_fract_y
  _atom_site_fract_z
  _atom_site_occupancy
  N   N1        1.0  0.9204457516745123  0.57864447164267  0.5619567970099888  1.0000
  C   C1        1.0  0.848224375707801  0.5699798744822107  0.6188100545803414  1.0000
  C   C2        1.0  0.7582817006670864  0.5591906209536786  0.6896043394257294  1.0000
  C   C3        1.0  0.6707905323051037  0.5696137241880483  0.6212119787237805  1.0000
  C   C4        1.0  0.5828372360275154  0.5593117245402679  0.6888093565222839  1.0000
  C   C5        1.0  0.49308191382713595  0.5700431190936783  0.6183948116988369  1.0000
  N   N2        1.0  0.42093025677968876  0.5786703364349699  0.561787131209398  1.0000
  C   C6        1.0  0.5823694787253908  0.5385555316638029  0.8250022885454378  1.0000
  C   C7        1.0  0.6694803326225609  0.5281227121608632  0.8934559854528032  1.0000
  C   C8        1.0  0.7577484654062828  0.538358320126795  0.8262955832617038  1.0000
  O   O1        1.0  0.8445795282182336  0.5279076905146702  0.8948677491215128  1.0000
  H   H1        1.0  0.6711574914380912  0.585693954491602  0.5157014135935125  1.0000
  H   H2        1.0  0.5147424309027013  0.5304473115538852  0.8782045358334157  1.0000
  H   H3        1.0  0.6683353039857176  0.5120743765406464  0.9987579171069283  1.0000
  H   H4        1.0  0.8459776333819262  0.5128879410946459  0.9934198032360521  1.0000
  C   C9        1.0  0.16784332769255061  0.15502514133573664  0.5631990874359227  1.0000
  C   C10       1.0  0.13304235308844103  0.23774765420205535  0.45285468225869185  1.0000
  C   C11       1.0  0.10721892168912706  0.17228960258842752  0.34044108957062424  1.0000
  C   C12       1.0  0.11579114235484793  0.02294751944837725  0.33614611016885343  1.0000
  C   C13       1.0  0.1487039660651357  0.9385366346787765  0.4455585026614431  1.0000
  C   C14       1.0  0.17354183259335354  0.002278593294650514  0.5605560380162893  1.0000
  C   C15       1.0  0.0896656811357155  0.9557807424542115  0.21973455609298864  1.0000
  C   C16       1.0  0.06779171526274785  0.8995109289970781  0.1222581309097559  1.0000
  C   C17       1.0  0.04125198211382464  0.8312254635471683  0.0039875842219885315  1.0000
  H   H5        1.0  0.3065232435797496  0.2367192254028525  0.8225769961816136  1.0000
  H   H6        1.0  0.12795534433709155  0.3542648214876005  0.45244780421887243  1.0000
  H   H7        1.0  0.08142692452301371  0.23851653144184204  0.2563201777963917  1.0000
  H   H8        1.0  0.15277120506415637  0.8222263194093239  0.4419334014574776  1.0000
  H   H9        1.0  0.2638141268147154  0.7070081188701469  0.7379633721972426  1.0000
  H   H10       1.0  0.058902428275105397  0.7145062056312174  0.016117030608533648  1.0000
  H   H11       1.0  0.9626563672452715  0.8438015365840166  0.9862310572278052  1.0000
  H   H12       1.0  0.0820633601013059  0.8835646089532965  0.9198915218451034  1.0000
  C   C18       1.0  0.17081989691922028  0.5785997103988856  0.1804245451722446  1.0000
  C   C19       1.0  0.07321844916413922  0.6182186388155595  0.17685221244351723  1.0000
  C   C20       1.0  0.023214349132021365  0.6385163416508968  0.05840559807781421  1.0000
  C   C21       1.0  0.07284009426840535  0.6183716678650837  0.9416291385638323  1.0000
  C   C22       1.0  0.170565265259901  0.578704017973052  0.9433306160105032  1.0000
  C   C23       1.0  0.2189169755358864  0.5590756623317399  0.06311670722803653  1.0000
  C   C24       1.0  0.917651346646551  0.681366749198854  0.06397403584413543  1.0000
  C   C25       1.0  0.8496511416364682  0.623339008378454  0.9639061232773161  1.0000
  C   C26       1.0  0.8794386310617037  0.7824929718166991  0.952300407789343  1.0000
  H   H13       1.0  0.20843155268086488  0.5633463585310778  0.5093384482483714  1.0000
  H   H14       1.0  0.03553901211100662  0.6335140803240042  0.2668954530707226  1.0000
  H   H15       1.0  0.036206189729007125  0.6332389785040062  0.8489881093092109  1.0000
  H   H16       1.0  0.2942183482316216  0.5285081091762105  0.06514549202995124  1.0000
  H   H17       1.0  0.355136808702294  0.5037645370502843  0.7393291380536136  1.0000
  H   H18       1.0  0.883721827152123  0.6951408145660554  0.16001988040916038  1.0000
  H   H19       1.0  0.8819183315908888  0.5582279516727793  0.8895731715283763  1.0000
  H   H20       1.0  0.77446256436807  0.6038154346858713  0.9991110440754839  1.0000
  H   H21       1.0  0.9298005644723754  0.8140590648822823  0.8709185472856658  1.0000
  H   H22       1.0  0.8216586713470269  0.8559883167713392  0.9807198807281288  1.0000
  Zn  Zn1       1.0  0.06487473858606352  0.5786480747215663  0.5619153372139587  1.0000
  Zn  Zn2       1.0  0.27650116287783955  0.5786549308732791  0.5618392289469918  1.0000
  C   C27       1.0  0.17057257880157506  0.5729372522671197  0.7991429586791929  1.0000
  C   C28       1.0  0.1708056458162106  0.5843675736315788  0.3246117284670531  1.0000
  C   C29       1.0  0.17246144451495352  0.842128919955501  0.5558793455596553  1.0000
  C   C30       1.0  0.16891669620906735  0.3151741727348685  0.5678754162732493  1.0000
  O   O2        1.0  0.2511119458042812  0.5862996294769911  0.3729734012893222  1.0000
  O   O3        1.0  0.25088583095392814  0.5710093117356649  0.7507231509097773  1.0000
  O   O4        1.0  0.25241003082224006  0.7883849879368641  0.5542860578954121  1.0000
  O   O5        1.0  0.24958767382412317  0.3689239635799053  0.5694103969013196  1.0000
  O   O6        1.0  0.09178815542207988  0.7883790420141705  0.554344169278766  1.0000
  O   O7        1.0  0.09026396722983311  0.5710050990205302  0.7507811876256072  1.0000
  O   O8        1.0  0.09049008232757472  0.5862953662771528  0.3730298764168647  1.0000
  O   O9        1.0  0.08896581024156272  0.3689196900751839  0.5694669694503649  1.0000
