data_image0
_chemical_formula_structural       NC5NC3F3CH3C7NH5C6BrH4Zn2C4O8
_chemical_formula_sum              "N3 C26 F3 H12 Br1 Zn2 O8"
_cell_length_a       13.85151926108384
_cell_length_b       9.275154477615127
_cell_length_c       9.276567756262418
_cell_angle_alpha    86.34818767424132
_cell_angle_beta     90.18621463620289
_cell_angle_gamma    89.43371178103573

_space_group_name_H-M_alt    "P 1"
_space_group_IT_number       1

loop_
  _space_group_symop_operation_xyz
  'x, y, z'

loop_
  _atom_site_type_symbol
  _atom_site_label
  _atom_site_symmetry_multiplicity
  _atom_site_fract_x
  _atom_site_fract_y
  _atom_site_fract_z
  _atom_site_occupancy
  N   N1        1.0  0.8952961142912578  0.5623850785481491  0.4168317826926473  1.0000
  C   C1        1.0  0.8231584605358464  0.5539185240351234  0.4792352993872944  1.0000
  C   C2        1.0  0.7334135574014831  0.5433849727780597  0.5568742016374344  1.0000
  C   C3        1.0  0.6456671384549564  0.5518651857709302  0.4814188295804693  1.0000
  C   C4        1.0  0.558361567942134  0.5433849594389151  0.556874181535548  1.0000
  C   C5        1.0  0.46813920850841456  0.5539185411020653  0.47923539347791994  1.0000
  N   N2        1.0  0.3956179291509656  0.5623850416996583  0.41683188794959336  1.0000
  C   C6        1.0  0.5588001199924492  0.525428485892739  0.707956919806668  1.0000
  C   C7        1.0  0.6465793557385862  0.5137715061239103  0.7846612103028354  1.0000
  C   C8        1.0  0.6470264469008281  0.4997933376954329  0.9475497806298812  1.0000
  F   F1        1.0  0.7285641598623592  0.4254997605808359  0.998832673978989  1.0000
  F   F2        1.0  0.5666953456134491  0.425499730959835  0.9988327731113504  1.0000
  F   F3        1.0  0.6462381438965459  0.6360845938753408  0.9997850967356832  1.0000
  C   C9        1.0  0.7338704475042189  0.5254283908517878  0.707956939037516  1.0000
  H   H1        1.0  0.6453194529596455  0.5659278903315765  0.3644458500298502  1.0000
  H   H2        1.0  0.4908327876924411  0.5208158771716653  0.765563460637289  1.0000
  H   H3        1.0  0.8021495416596084  0.5208157958883157  0.7655634192935026  1.0000
  C   C10       1.0  0.14825178326931443  0.13897945153681593  0.4151643856821843  1.0000
  C   C11       1.0  0.1214839719007823  0.22091445987706182  0.28811745121118015  1.0000
  C   C12       1.0  0.08687781141781503  0.15369785916691403  0.16780038118894236  1.0000
  C   C13       1.0  0.07847084819966343  0.0036293594337981697  0.17311325122958965  1.0000
  C   C14       1.0  0.10612731000624898  0.9204583183195995  0.29726425217936536  1.0000
  C   C15       1.0  0.14267159074960079  0.9857797473994943  0.41851169630611906  1.0000
  C   C16       1.0  0.05882237186788422  0.2391996854625074  0.03922219974716156  1.0000
  N   N3        1.0  0.03627357479126081  0.30792757027198214  0.9358782768730354  1.0000
  H   H4        1.0  0.1677182042805705  0.21911399929184874  0.7688610945173902  1.0000
  H   H5        1.0  0.12541760088957576  0.3378319940615724  0.283842023764594  1.0000
  H   H6        1.0  0.05135942980272579  0.9505972816475189  0.08064202634508644  1.0000
  H   H7        1.0  0.10105759009054799  0.803989480545262  0.2971374416343817  1.0000
  H   H8        1.0  0.15987318453050814  0.6893301389570822  0.6554985524985868  1.0000
  C   C17       1.0  0.1445674784945481  0.5582360684584173  0.993694888240868  1.0000
  C   C18       1.0  0.05854866115769421  0.5929464508381606  0.06444291908092215  1.0000
  C   C19       1.0  0.9767416068441528  0.6395334788117912  0.9859260693176893  1.0000
  C   C20       1.0  0.9794163329856426  0.6523537109999074  0.8354809022762733  1.0000
  C   C21       1.0  0.06355276052793801  0.6160857975444769  0.7629996521667737  1.0000
  C   C22       1.0  0.14635592205383285  0.5665231539281983  0.8399811688126326  1.0000
  Br  Br1       1.0  0.8674408759512385  0.7172749134306241  0.7284872839049195  1.0000
  H   H9        1.0  0.27824106382968666  0.42727550090872346  0.28401142799578327  1.0000
  H   H10       1.0  0.9114742020435753  0.6670235941438555  0.04235211219043844  1.0000
  H   H11       1.0  0.06335228528462535  0.6234508613079229  0.6459783019073311  1.0000
  H   H12       1.0  0.3053017543911263  0.551634713925955  0.5605276055759991  1.0000
  Zn  Zn1       1.0  0.03967822560806411  0.5623813000861126  0.4168401033331153  1.0000
  Zn  Zn2       1.0  0.25123590270450125  0.5623771748148346  0.4168352695795918  1.0000
  C   C23       1.0  0.14605353816041133  0.559212726305228  0.679992220031195  1.0000
  C   C24       1.0  0.14486288866596936  0.5655475691736102  0.15368330144869913  1.0000
  C   C25       1.0  0.1437092580856213  0.825660219056725  0.41213690045774953  1.0000
  C   C26       1.0  0.14720710812859572  0.2990983448873268  0.4215386909991936  1.0000
  O   O1        1.0  0.22524710838526574  0.5679935198327402  0.20737501518480927  1.0000
  O   O2        1.0  0.22623670653706485  0.5567625528854905  0.6262964184922357  1.0000
  O   O3        1.0  0.2243425916147912  0.7719222876635795  0.41000135876668065  1.0000
  O   O4        1.0  0.2271411508209491  0.35283379431234274  0.42366996691193415  1.0000
  O   O5        1.0  0.0637729052973377  0.7719246805915074  0.41000540599484947  1.0000
  O   O6        1.0  0.06566700863749575  0.5567666773511079  0.6263003957374325  1.0000
  O   O7        1.0  0.06467740721994454  0.5679975770896113  0.2073772597987071  1.0000
  O   O8        1.0  0.06657144994793929  0.3528378423144256  0.4236723195183387  1.0000
