data_image0
_chemical_formula_structural       NC5NC3F3CH3C6BrH5C6SCH8Zn2C4O8
_chemical_formula_sum              "N2 C26 F3 H16 Br1 S1 Zn2 O8"
_cell_length_a       13.85151926108384
_cell_length_b       9.276564384272257
_cell_length_c       10.302812801239591
_cell_angle_alpha    85.51203806162957
_cell_angle_beta     89.99987069690108
_cell_angle_gamma    90.58593481197379

_space_group_name_H-M_alt    "P 1"
_space_group_IT_number       1

loop_
  _space_group_symop_operation_xyz
  'x, y, z'

loop_
  _atom_site_type_symbol
  _atom_site_label
  _atom_site_symmetry_multiplicity
  _atom_site_fract_x
  _atom_site_fract_y
  _atom_site_fract_z
  _atom_site_occupancy
  N   N1        1.0  0.919893274431731  0.5782295055385734  0.566742351775722  1.0000
  C   C1        1.0  0.8475014824284977  0.5691499141673179  0.6230067327681625  1.0000
  C   C2        1.0  0.7574403956811047  0.5578536573688659  0.6930076717035387  1.0000
  C   C3        1.0  0.6699776029625805  0.5670747450053373  0.6249830641094359  1.0000
  C   C4        1.0  0.5823884060872331  0.5578536442237185  0.6930076536488438  1.0000
  C   C5        1.0  0.49248223041967576  0.5691499303163957  0.6230068174730868  1.0000
  N   N2        1.0  0.4202150885588301  0.5782294676511779  0.5667424467754705  1.0000
  C   C6        1.0  0.5822459044783593  0.5384135211572887  0.8292161568117848  1.0000
  C   C7        1.0  0.6696959243581219  0.5260027465529764  0.8983798458798831  1.0000
  C   C8        1.0  0.6695890363137491  0.5104261591552011  0.045208570952690486  1.0000
  F   F1        1.0  0.7500110026420225  0.4356142124036111  0.09173808537822392  1.0000
  F   F2        1.0  0.588142187771597  0.43561418180525674  0.09173817482819924  1.0000
  F   F3        1.0  0.6705190626296293  0.6462353116010231  0.09168389431614475  1.0000
  C   C9        1.0  0.7573162306669144  0.538413425907406  0.8292161745512001  1.0000
  H   H1        1.0  0.6700819455510514  0.5822861721049482  0.5195254881766593  1.0000
  H   H2        1.0  0.5140871100998364  0.5332356934096005  0.8811416015470424  1.0000
  H   H3        1.0  0.8254038630650823  0.5332356125135895  0.8811415646470379  1.0000
  C   C10       1.0  0.16715014385493765  0.15474853694675916  0.5670743703844574  1.0000
  C   C11       1.0  0.1547783326063934  0.23824783132789912  0.4484147885439888  1.0000
  C   C12       1.0  0.15139117698621218  0.1732589679392864  0.33086354728912704  1.0000
  C   C13       1.0  0.1603543830743213  0.023851807340219182  0.3297398322959062  1.0000
  C   C14       1.0  0.1710254436529082  0.9386591840039723  0.44660508075205246  1.0000
  C   C15       1.0  0.17296737355592498  0.0016993394394666484  0.5664215757160489  1.0000
  Br  Br1       1.0  0.15643046173663788  0.9354940408232694  0.16843899073888613  1.0000
  H   H4        1.0  0.13884042334857963  0.4173009277065091  0.7781446671512705  1.0000
  H   H5        1.0  0.15001408572763397  0.35490422409187494  0.44619216097118225  1.0000
  H   H6        1.0  0.14271578690634137  0.23947920515992369  0.2404304106547812  1.0000
  H   H7        1.0  0.17549228268377332  0.8224192016802931  0.4438060010565954  1.0000
  H   H8        1.0  0.22622402579847492  0.7037666674736247  0.7686256927968225  1.0000
  C   C16       1.0  0.17005878553083287  0.5782239605748623  0.18549953450813494  1.0000
  C   C17       1.0  0.13848860223376327  0.722035269081998  0.17419141462987087  1.0000
  C   C18       1.0  0.12252992445931987  0.7933785367390103  0.051589429864942415  1.0000
  C   C19       1.0  0.13848851416013133  0.7220351177010781  0.9390402450572859  1.0000
  C   C20       1.0  0.17005872284429654  0.5782239508565095  0.9479964381451578  1.0000
  C   C21       1.0  0.18565971322502173  0.5070084726275437  0.07176547621798335  1.0000
  S   S1        1.0  0.08239335405341142  0.9772255235712146  0.03863640686430525  1.0000
  C   C22       1.0  0.955059048390529  0.9268409104051709  0.04218736293282044  1.0000
  H   H9        1.0  0.18192006069221403  0.5240099619512688  0.5170753964789292  1.0000
  H   H10       1.0  0.1259476099873496  0.7791575311592116  0.26026643981770414  1.0000
  H   H11       1.0  0.12594741527670045  0.779157323424766  0.8449161269956922  1.0000
  H   H12       1.0  0.20999362285556966  0.39607087591835777  0.07958151876686714  1.0000
  H   H13       1.0  0.18191825798092287  0.5240092132597769  0.6240598115417302  1.0000
  H   H14       1.0  0.9374993761239112  0.8626874720145842  0.9585904827818483  1.0000
  H   H15       1.0  0.9374997996124231  0.8626889294219  0.1348251736921422  1.0000
  H   H16       1.0  0.911061491317155  0.026378263347478285  0.03517413963599836  1.0000
  Zn  Zn1       1.0  0.06427531617767258  0.578225644762939  0.5667498653270941  1.0000
  Zn  Zn2       1.0  0.27583294856656626  0.5782215659421053  0.5667455278227809  1.0000
  C   C23       1.0  0.17001712440920747  0.5724789731770357  0.8038726374148539  1.0000
  C   C24       1.0  0.17009346303532635  0.5839700570449542  0.32962288171149723  1.0000
  C   C25       1.0  0.17186282102715336  0.8416076319210704  0.5613714658691327  1.0000
  C   C26       1.0  0.1682476823273189  0.3148396657058523  0.5721241238107845  1.0000
  O   O1        1.0  0.250390076860467  0.5858906602485969  0.3779903524045054  1.0000
  O   O2        1.0  0.250287850984652  0.5705541863359977  0.7555015017669358  1.0000
  O   O3        1.0  0.2517771920651027  0.7878789818890708  0.5596800888742848  1.0000
  O   O4        1.0  0.24890066366058955  0.36856587501299787  0.573811667946774  1.0000
  O   O5        1.0  0.09120752888942299  0.7878813356950085  0.5596837251977504  1.0000
  O   O6        1.0  0.08971819970480777  0.5705582727399638  0.7555050675314863  1.0000
  O   O7        1.0  0.08982042529978833  0.585894696399315  0.37799235730026415  1.0000
  O   O8        1.0  0.08833101202511129  0.3685699008492034  0.5738137701875661  1.0000
