data_image0
_chemical_formula_structural       NC8SNC5NC2H9C14H10C7N2C6H12Zn2C4O8
_chemical_formula_sum              "N5 C46 S1 H31 Zn2 O8"
_cell_length_a       21.362259523660498
_cell_length_b       17.567807274406366
_cell_length_c       17.181329709859032
_cell_angle_alpha    86.22462297385408
_cell_angle_beta     90.03009742154907
_cell_angle_gamma    90.0838952798135

_space_group_name_H-M_alt    "P 1"
_space_group_IT_number       1

loop_
  _space_group_symop_operation_xyz
  'x, y, z'

loop_
  _atom_site_type_symbol
  _atom_site_label
  _atom_site_symmetry_multiplicity
  _atom_site_fract_x
  _atom_site_fract_y
  _atom_site_fract_z
  _atom_site_occupancy
  N   N1        1.0  0.5808993312052873  0.8253828032977276  0.13354588306460546  1.0000
  C   C1        1.0  0.5276573409763763  0.8145791386066407  0.14017000065108887  1.0000
  C   C2        1.0  0.4614301798949665  0.8011405746363587  0.14840951157226823  1.0000
  C   C3        1.0  0.43050101455287093  0.8195118106934932  0.21644246851719673  1.0000
  C   C4        1.0  0.3661897614827793  0.806406481432878  0.22450410910241958  1.0000
  C   C5        1.0  0.3319306696016428  0.7749264824002324  0.16445164450966565  1.0000
  C   C6        1.0  0.36347203540565604  0.7563720053751757  0.09640784128478985  1.0000
  C   C7        1.0  0.4278118962355665  0.7694629417156919  0.08849815484153623  1.0000
  C   C8        1.0  0.2637544109434797  0.7614423725423626  0.173325649105452  1.0000
  S   S1        1.0  0.23757777051700663  0.7193216650380101  0.2553425274546737  1.0000
  N   N2        1.0  0.22231237107240853  0.7759501398846416  0.10781081228147493  1.0000
  C   C9        1.0  0.15573693612780692  0.785566753612978  0.11412509094637724  1.0000
  C   C10       1.0  0.11637706608560482  0.7576948166934053  0.057103853117946524  1.0000
  C   C11       1.0  0.0515863495567176  0.7679660058724065  0.06107234464584898  1.0000
  C   C12       1.0  0.025590798567650303  0.807156789163508  0.1216154890987019  1.0000
  C   C13       1.0  0.9589034222682349  0.8178412161301132  0.12564167059597176  1.0000
  N   N3        1.0  0.9052904629428968  0.8264306542096148  0.12887910027057958  1.0000
  C   C14       1.0  0.06469331701085212  0.8364712126891194  0.17786708250611438  1.0000
  C   C15       1.0  0.12948208333939593  0.8261715938804436  0.1739237948004756  1.0000
  H   H1        1.0  0.4560528810344093  0.8440621639015624  0.2632036957713525  1.0000
  H   H2        1.0  0.34305777777574203  0.8216142468075459  0.2773549572133308  1.0000
  H   H3        1.0  0.3388957418011921  0.7303582117060955  0.04987989206382604  1.0000
  H   H4        1.0  0.4513716367821418  0.7545722793664562  0.035787093005646975  1.0000
  H   H5        1.0  0.2411628061018787  0.7803927062721158  0.051650201570754506  1.0000
  H   H6        1.0  0.13597762449484782  0.7274786404789888  0.009900920544459015  1.0000
  H   H7        1.0  0.021828378149138798  0.745510905313443  0.016901559875543315  1.0000
  H   H8        1.0  0.0451587602244218  0.867679751634923  0.22444195815400414  1.0000
  H   H9        1.0  0.1591106160885456  0.8508271838168174  0.21678418001295785  1.0000
  C   C16       1.0  0.7431716898046368  0.6023168108840501  0.1312217039068243  1.0000
  C   C17       1.0  0.6948732035855014  0.5639635501175709  0.09416186296170082  1.0000
  C   C18       1.0  0.6949744881378139  0.4843670373877022  0.09412899565345334  1.0000
  C   C19       1.0  0.743276196019581  0.4421381445862896  0.1311179508971717  1.0000
  C   C20       1.0  0.7915528868778776  0.4797936826205637  0.1681456361157373  1.0000
  C   C21       1.0  0.7915675178398793  0.5593854915358146  0.16822762711595318  1.0000
  C   C22       1.0  0.7432652270048634  0.36022094504485996  0.13114186223569213  1.0000
  C   C23       1.0  0.7432255734741385  0.2915950196308462  0.1311722763177814  1.0000
  C   C24       1.0  0.7431509430973495  0.2096772870783179  0.13120667269393527  1.0000
  C   C25       1.0  0.799791781496409  0.169744010803817  0.13139659347734112  1.0000
  C   C26       1.0  0.7997771887828827  0.09014461826910251  0.13138210324783273  1.0000
  C   C27       1.0  0.743024178506049  0.04949086202355749  0.13120990002235167  1.0000
  C   C28       1.0  0.6862968440728084  0.09012450477252969  0.13104638079745168  1.0000
  C   C29       1.0  0.6864359761173379  0.16972133330837416  0.13104244399431353  1.0000
  H   H10       1.0  0.6943258256308439  0.7862351172954513  0.09377489934735539  1.0000
  H   H11       1.0  0.6569955192531121  0.5953742413823866  0.06518819129206244  1.0000
  H   H12       1.0  0.6573930903188123  0.4557766748991039  0.06526730868236952  1.0000
  H   H13       1.0  0.8291525588636722  0.44764486661631503  0.19697782006056452  1.0000
  H   H14       1.0  0.8294221495409857  0.5872478460612859  0.19725259439484644  1.0000
  H   H15       1.0  0.8439573700947048  0.2001252744741885  0.13152951158978599  1.0000
  H   H16       1.0  0.8441845234500989  0.06053118770239361  0.13148976248555277  1.0000
  H   H17       1.0  0.6418465693482515  0.0604608897076902  0.13094291635284538  1.0000
  H   H18       1.0  0.6423373386625966  0.20007747425338837  0.1309315206962457  1.0000
  H   H19       1.0  0.800133125539539  0.8679115955521426  0.13111644399751987  1.0000
  C   C30       1.0  0.7409084666179873  0.8232957577165474  0.9028053556883084  1.0000
  C   C31       1.0  0.7885140847984058  0.828520469940416  0.8463487735552497  1.0000
  C   C32       1.0  0.7740528954140539  0.8263473850351962  0.767172622781084  1.0000
  C   C33       1.0  0.7117450211782389  0.8186083992869051  0.7427520465048483  1.0000
  C   C34       1.0  0.6640521439166193  0.8137333331558406  0.7992359747012823  1.0000
  C   C35       1.0  0.6785021836190434  0.8159759430485564  0.8784186531730698  1.0000
  C   C36       1.0  0.6971897532967436  0.8166664072058306  0.6583724215265665  1.0000
  N   N4        1.0  0.6509794789054446  0.7759445900112206  0.6347754833559076  1.0000
  N   N5        1.0  0.7335537211505426  0.8624172767067771  0.6024653359855838  1.0000
  C   C37       1.0  0.736406482815576  0.8501156524677685  0.5205996100560148  1.0000
  C   C38       1.0  0.7340274152906731  0.7763359711923029  0.4937007119778558  1.0000
  C   C39       1.0  0.7381070578473244  0.7656801758166943  0.4139436733927979  1.0000
  C   C40       1.0  0.7452873958673949  0.8285119529449017  0.359626270042015  1.0000
  C   C41       1.0  0.7487269400693594  0.9021017121497885  0.38681103052615473  1.0000
  C   C42       1.0  0.7446875350151109  0.912647524962543  0.46658631025322217  1.0000
  H   H20       1.0  0.8295115582445682  0.8347328097953219  0.06730406307938541  1.0000
  H   H21       1.0  0.837045526222723  0.834191750681084  0.8632624981835733  1.0000
  H   H22       1.0  0.8117918265237597  0.829842754222241  0.725013819824631  1.0000
  H   H23       1.0  0.6154179264488947  0.8094955851345083  0.782346144916958  1.0000
  H   H24       1.0  0.6407230319329313  0.8122782180400083  0.9205058919093105  1.0000
  H   H25       1.0  0.6231665678135777  0.7414160455909886  0.6725540912722197  1.0000
  H   H26       1.0  0.756265330415345  0.9104535934135826  0.6217596810584618  1.0000
  H   H27       1.0  0.7301387424092192  0.7267905931569827  0.5342835845475922  1.0000
  H   H28       1.0  0.7360286853196001  0.7081857587677981  0.3948948147341098  1.0000
  H   H29       1.0  0.7546353817780379  0.9516159678395754  0.346515957109907  1.0000
  H   H30       1.0  0.747550125059231  0.9698157321157402  0.4863668845644533  1.0000
  H   H31       1.0  0.7599223170539933  0.8732294416849384  0.16387730911730114  1.0000
  Zn  Zn1       1.0  0.6745116518851985  0.8256832018380796  0.13220364190159462  1.0000
  Zn  Zn2       1.0  0.8116782060310572  0.8261240929144031  0.13022771221864737  1.0000
  C   C43       1.0  0.7444592813128474  0.8244927167765639  0.2732774351801346  1.0000
  C   C44       1.0  0.7417320748727684  0.8273155443562904  0.9891539736802403  1.0000
  C   C45       1.0  0.7430191172366135  0.9649300548349781  0.1281126678227038  1.0000
  C   C46       1.0  0.7431721928429379  0.6868772918426883  0.13431878320460022  1.0000
  O   O1        1.0  0.794062478871531  0.828828615613944  0.017383503753187198  1.0000
  O   O2        1.0  0.7962351161359982  0.8233136946934247  0.24354799630803173  1.0000
  O   O3        1.0  0.7950714714709743  0.9367186282275514  0.12632642968978436  1.0000
  O   O4        1.0  0.7952260761700709  0.7154236867101462  0.13460501272565395  1.0000
  O   O5        1.0  0.6909637349379322  0.9363836078926642  0.1278263420647845  1.0000
  O   O6        1.0  0.6921273789007678  0.8229795886640533  0.24504786718629926  1.0000
  O   O7        1.0  0.6899547327225944  0.8284944723739013  0.018882439473415835  1.0000
  O   O8        1.0  0.6911183305793657  0.7150895386901026  0.13610400676186007  1.0000
