data_image0
_chemical_formula_structural       NC9NC3OH6C7NC2NH7C6OCH7Zn2C4O8
_chemical_formula_sum              "N4 C32 O10 H20 Zn2"
_cell_length_a       15.78231758774541
_cell_length_b       9.273995741505848
_cell_length_c       9.273891588657152
_cell_angle_alpha    86.22271932508039
_cell_angle_beta     89.76748324947235
_cell_angle_gamma    90.21461439936415

_space_group_name_H-M_alt    "P 1"
_space_group_IT_number       1

loop_
  _space_group_symop_operation_xyz
  'x, y, z'

loop_
  _atom_site_type_symbol
  _atom_site_label
  _atom_site_symmetry_multiplicity
  _atom_site_fract_x
  _atom_site_fract_y
  _atom_site_fract_z
  _atom_site_occupancy
  N   N1        1.0  0.8123548742058583  0.5549112065372477  0.4167127559538992  1.0000
  C   C1        1.0  0.7631930955875659  0.464030348709268  0.44320889681876446  1.0000
  C   C2        1.0  0.7021571050561028  0.3512251170784344  0.47609743696890616  1.0000
  C   C3        1.0  0.7208380830067198  0.20952276942400053  0.5173226068334207  1.0000
  C   C4        1.0  0.6436315100136566  0.14084901428548813  0.5373846819155881  1.0000
  C   C5        1.0  0.5825772128825863  0.24572538430774937  0.5069191548040706  1.0000
  C   C6        1.0  0.48935161119338816  0.22633626908045382  0.512653616068194  1.0000
  C   C7        1.0  0.43643051496687574  0.3452251204896495  0.47793395438806047  1.0000
  C   C8        1.0  0.3481136182097417  0.3293265828462051  0.48264402277161045  1.0000
  C   C9        1.0  0.29452002896393387  0.45167448414346417  0.44690502184928005  1.0000
  N   N2        1.0  0.251443573173456  0.5500263988144622  0.41817404702956074  1.0000
  C   C10       1.0  0.31203529676949754  0.1943622648472978  0.5221276833676898  1.0000
  C   C11       1.0  0.3640271485419181  0.07571925660675437  0.5567803990442894  1.0000
  C   C12       1.0  0.4521553544324771  0.09118102313023836  0.5521983121240228  1.0000
  O   O1        1.0  0.619896809921357  0.37001653539725776  0.470705375693794  1.0000
  H   H1        1.0  0.7829676377238588  0.16173514300520897  0.5311687752078751  1.0000
  H   H2        1.0  0.634117090983947  0.027930267338132087  0.5702528359309607  1.0000
  H   H3        1.0  0.4637641008113913  0.45025124355603174  0.44720342494035514  1.0000
  H   H4        1.0  0.2438255011290135  0.18089700831163413  0.5261145106803924  1.0000
  H   H5        1.0  0.3359682232696963  0.9714111508829405  0.5873013087909931  1.0000
  H   H6        1.0  0.4905904246649032  0.9972074883173553  0.5796548598279365  1.0000
  C   C13       1.0  0.029372772207168375  0.12899841756566444  0.4163820186172187  1.0000
  C   C14       1.0  0.044670624269243175  0.2108864032646034  0.2860793007980096  1.0000
  C   C15       1.0  0.06753226789597438  0.14438844590494984  0.16120819275819542  1.0000
  C   C16       1.0  0.07604439365697985  0.9938642815154637  0.16307392057735925  1.0000
  C   C17       1.0  0.05897128576538724  0.9107076573188693  0.2921766684453786  1.0000
  C   C18       1.0  0.03443365408348554  0.9759280814174672  0.4185172006714666  1.0000
  C   C19       1.0  0.10131144171352169  0.9253753099897517  0.02921225820803274  1.0000
  N   N3        1.0  0.10482169622697124  0.9984371116860605  0.8982470115783991  1.0000
  C   C20       1.0  0.13052869461799688  0.8994443567494328  0.8076782088068608  1.0000
  C   C21       1.0  0.14237035633165374  0.7690897194352553  0.8842376605115119  1.0000
  N   N4        1.0  0.12403211859157176  0.7855520881741918  0.02354311326362302  1.0000
  H   H7        1.0  0.9599924944119125  0.3962467787743855  0.6236001070869741  1.0000
  H   H8        1.0  0.0409991049657481  0.32772911199705246  0.2814181351668086  1.0000
  H   H9        1.0  0.07980697794959624  0.21156690962291733  0.06333184972027972  1.0000
  H   H10       1.0  0.0618337739512953  0.794131762864917  0.29418372165230244  1.0000
  H   H11       1.0  0.0347664739509119  0.6800599005903935  0.658218987542228  1.0000
  H   H12       1.0  0.14027446580881484  0.9213189752494515  0.6927898336300311  1.0000
  H   H13       1.0  0.12836411424962613  0.7057246093765183  0.1078129198633897  1.0000
  C   C22       1.0  0.03326838204853022  0.5486286474143309  0.9941692825942425  1.0000
  C   C23       1.0  0.10301723257858292  0.6087658894547371  0.06312745408472753  1.0000
  C   C24       1.0  0.16802454754277585  0.6797247354225171  0.9837133334617358  1.0000
  C   C25       1.0  0.163516098465596  0.6909051142860039  0.8322855540114826  1.0000
  C   C26       1.0  0.09554203893853434  0.6298749058468154  0.7619889071286581  1.0000
  C   C27       1.0  0.030538023545048074  0.5562978517877455  0.8407299418925054  1.0000
  O   O2        1.0  0.2354489600742833  0.7381122177778601  0.05929223604972388  1.0000
  C   C28       1.0  0.3056721293738305  0.813228641044979  0.9926393918294475  1.0000
  H   H14       1.0  0.8312117585031957  0.462300398754048  0.10429254493161677  1.0000
  H   H15       1.0  0.21265172199315818  0.7454283045730654  0.767664674183663  1.0000
  H   H16       1.0  0.0949028125446924  0.6373146677276222  0.6449241931814438  1.0000
  H   H17       1.0  0.8957555277720426  0.492445739832391  0.5646752906221519  1.0000
  H   H18       1.0  0.2835122577756528  0.9110668218155475  0.928414148929142  1.0000
  H   H19       1.0  0.34057164582923716  0.7412665989428135  0.9221638586069166  1.0000
  H   H20       1.0  0.34924853406791256  0.847215027003013  0.07771417324710983  1.0000
  Zn  Zn1       1.0  0.9390663344033445  0.5534977799553082  0.41714276026002084  1.0000
  Zn  Zn2       1.0  0.12473197615055825  0.5514281625361726  0.4177557960751366  1.0000
  C   C29       1.0  0.031017915415889143  0.549103441142194  0.6806973791213848  1.0000
  C   C30       1.0  0.03278243301739202  0.5558242995469203  0.15420132996999536  1.0000
  C   C31       1.0  0.03349120283213325  0.815788402305756  0.4123697051342834  1.0000
  C   C32       1.0  0.03030907164561292  0.2891376072324967  0.4225290762277085  1.0000
  O   O3        1.0  0.10307844992824572  0.5574475258961799  0.20814217501617693  1.0000
  O   O4        1.0  0.10163781941820277  0.5459083314208644  0.6272213964008024  1.0000
  O   O5        1.0  0.10363407562895421  0.7612598344177357  0.4105449018374494  1.0000
  O   O6        1.0  0.10108213077259837  0.34209603294225777  0.42481856132046536  1.0000
  O   O7        1.0  0.9627161164227658  0.7628299102569831  0.41007999479791524  1.0000
  O   O8        1.0  0.9607198708090127  0.5474801391187325  0.62675641687388  1.0000
  O   O9        1.0  0.9621605066643987  0.5590192676416541  0.20767546236829215  1.0000
  O   O10       1.0  0.9601641870951106  0.3436677653525426  0.4243519567148688  1.0000
