data_image0
_chemical_formula_structural       NC9NC3OH6C10BrC2H7C10IC2H9Zn2C4O8
_chemical_formula_sum              "N2 C40 O9 H22 Br1 I1 Zn2"
_cell_length_a       15.78231758774541
_cell_length_b       10.299768994317796
_cell_length_c       10.299773630820606
_cell_angle_alpha    85.54444393526653
_cell_angle_beta     90.08888169708479
_cell_angle_gamma    89.64981840110791

_space_group_name_H-M_alt    "P 1"
_space_group_IT_number       1

loop_
  _space_group_symop_operation_xyz
  'x, y, z'

loop_
  _atom_site_type_symbol
  _atom_site_label
  _atom_site_symmetry_multiplicity
  _atom_site_fract_x
  _atom_site_fract_y
  _atom_site_fract_z
  _atom_site_occupancy
  N   N1        1.0  0.7980703694262232  0.41369864712920834  0.5699502594341335  1.0000
  C   C1        1.0  0.749523531818779  0.331628623424705  0.5940278107346897  1.0000
  C   C2        1.0  0.6892508338313943  0.22975977497630584  0.623914254841329  1.0000
  C   C3        1.0  0.7088903413124948  0.1017961100696929  0.6613770349306909  1.0000
  C   C4        1.0  0.6321485804835413  0.03977988566342394  0.679607515936318  1.0000
  C   C5        1.0  0.570385011982544  0.13448763019412777  0.6519220514152186  1.0000
  C   C6        1.0  0.4772908775922969  0.11697758722745055  0.657132437053906  1.0000
  C   C7        1.0  0.42356513294976006  0.2243407376861397  0.6255824607580691  1.0000
  C   C8        1.0  0.33535606227788806  0.209982920024333  0.629862012776595  1.0000
  C   C9        1.0  0.2809343829509147  0.32046985959926055  0.5973858271107497  1.0000
  N   N2        1.0  0.23719224488901  0.40928710466335155  0.5712778762896711  1.0000
  C   C10       1.0  0.3001914203376188  0.08810215628547666  0.6657405306990485  1.0000
  C   C11       1.0  0.35298627279001854  0.9809609747703292  0.6972296354088614  1.0000
  C   C12       1.0  0.4410096101234428  0.9949243605449726  0.6930663776518946  1.0000
  O   O1        1.0  0.6068636756775203  0.2467286484750153  0.6190137179943205  1.0000
  H   H1        1.0  0.7713429615733227  0.0586421874113252  0.6739599785654453  1.0000
  H   H2        1.0  0.6233980439765908  0.9378089784214991  0.7094758471965048  1.0000
  H   H3        1.0  0.45018769695656685  0.319185584574043  0.5976578904287668  1.0000
  H   H4        1.0  0.23207294006566312  0.07594183150956946  0.6693629662814797  1.0000
  H   H5        1.0  0.3256335099823398  0.8867645363465256  0.7249637224793937  1.0000
  H   H6        1.0  0.48008074345910917  0.9100609969835486  0.7180162160648842  1.0000
  C   C13       1.0  0.01755552793778037  0.030128413992005724  0.570609840209954  1.0000
  C   C14       1.0  0.02446843287897592  0.03965673836069739  0.4343066972669956  1.0000
  C   C15       1.0  0.028052624381616136  0.9273444838103423  0.365250747941267  1.0000
  C   C16       1.0  0.024630004416968262  0.8043670866014252  0.4343267825679838  1.0000
  C   C17       1.0  0.01771517002959078  0.7928472813997739  0.5706295557724113  1.0000
  C   C18       1.0  0.014217219115928216  0.9062847705284427  0.6380079036722004  1.0000
  C   C19       1.0  0.03536645412584403  0.9384776330736705  0.2210539531515454  1.0000
  C   C20       1.0  0.08987877767607033  0.8550691462922096  0.15786904144722902  1.0000
  C   C21       1.0  0.09668149022304146  0.865753358879988  0.022137803223418073  1.0000
  C   C22       1.0  0.049217634023116276  0.9595621599576929  0.947944605672542  1.0000
  Br  Br1       1.0  0.05861989797897647  0.9738743088136463  0.7625497192093826  1.0000
  C   C23       1.0  0.9948629064641069  0.0428816394362208  0.009622544383969029  1.0000
  C   C24       1.0  0.9878990814491375  0.03261009796074202  0.14533402016116503  1.0000
  H   H7        1.0  0.02824982976526824  0.13464142960714204  0.3816673342221464  1.0000
  H   H8        1.0  0.026202423211329366  0.7175319143328583  0.38141584253153527  1.0000
  H   H9        1.0  0.008883423551597106  0.8981658525026001  0.7431593162434618  1.0000
  H   H10       1.0  0.12803511053075425  0.7827726494010983  0.21348781877247225  1.0000
  H   H11       1.0  0.13902624717266376  0.8012742483204244  0.9747629059120659  1.0000
  H   H12       1.0  0.9578182397640593  0.11542853829641662  0.952489222473584  1.0000
  H   H13       1.0  0.9446087116774918  0.09709165829703514  0.19094159883636874  1.0000
  C   C25       1.0  0.01761302378937746  0.41160620596321573  0.1892495032601016  1.0000
  C   C26       1.0  0.10304877759069919  0.44893942213042615  0.1855563867563208  1.0000
  C   C27       1.0  0.146362244884506  0.46773608868739913  0.06655588561772885  1.0000
  C   C28       1.0  0.1030938421276048  0.44870018154601876  0.9502886746420366  1.0000
  C   C29       1.0  0.01765766359560804  0.41136952223798295  0.9519898357066685  1.0000
  C   C30       1.0  0.9753957658162878  0.3930309081878708  0.07195310109533493  1.0000
  C   C31       1.0  0.23674518531502853  0.507230148910369  0.06370248229583653  1.0000
  C   C32       1.0  0.2945493482537571  0.4506359095401897  0.9804281136904698  1.0000
  C   C33       1.0  0.3795950567185302  0.48793475038317785  0.9779437201258773  1.0000
  C   C34       1.0  0.4079257891620045  0.5820315656325521  0.058296502059560495  1.0000
  I   I1        1.0  0.5362511206771909  0.6381068347980003  0.05424347213514036  1.0000
  C   C35       1.0  0.3511025477310097  0.6389179896559984  0.14133868229755153  1.0000
  C   C36       1.0  0.26600931407740624  0.6018707870237345  0.14422729311391946  1.0000
  H   H14       1.0  0.9850472037611121  0.3974375746237244  0.5181056050166659  1.0000
  H   H15       1.0  0.13643808259928525  0.46175583115316843  0.2755707907099827  1.0000
  H   H16       1.0  0.13586488265245356  0.46479308899392513  0.858185787273404  1.0000
  H   H17       1.0  0.9094857917168098  0.36423107447037895  0.0740337647728615  1.0000
  H   H18       1.0  0.9851131014345758  0.39708911698396737  0.6251888702331976  1.0000
  H   H19       1.0  0.27422490015288403  0.37638055056351954  0.9185265956633831  1.0000
  H   H20       1.0  0.42347210921456924  0.44340854398699836  0.9137667915481646  1.0000
  H   H21       1.0  0.372769322745399  0.7120852071906674  0.20344558663461676  1.0000
  H   H22       1.0  0.22289055787584378  0.6484033238267273  0.20813249051179605  1.0000
  Zn  Zn1       1.0  0.9247914531976781  0.4124221000065429  0.5703408743824192  1.0000
  Zn  Zn2       1.0  0.11047113102788247  0.41055304914558977  0.5708978774221527  1.0000
  C   C37       1.0  0.01764625935997333  0.40624063249869624  0.8078154690073314  1.0000
  C   C38       1.0  0.01761835283232549  0.4167361348041841  0.3334234163888792  1.0000
  C   C39       1.0  0.017680329435824767  0.6486788271318684  0.5654506087173958  1.0000
  C   C40       1.0  0.017584219074455287  0.1742963805030964  0.575788345687323  1.0000
  O   O2        1.0  0.08808461018075109  0.41774282504991  0.38202087828430575  1.0000
  O   O3        1.0  0.08810658092243995  0.4038143963014616  0.7596403856583152  1.0000
  O   O4        1.0  0.08813314312385406  0.5995863136597268  0.5639290433879189  1.0000
  O   O5        1.0  0.0880579846156852  0.22197091764975882  0.5777321229898826  1.0000
  O   O6        1.0  0.9472045362465137  0.6010042321416054  0.5635066286177803  1.0000
  O   O7        1.0  0.9471779743637578  0.4052338750904873  0.7592179016827589  1.0000
  O   O8        1.0  0.9471560035775483  0.419162259067525  0.3815968329018702  1.0000
  O   O9        1.0  0.9471293780127735  0.22339034234849153  0.5773081749753579  1.0000
