data_image0
_chemical_formula_structural       NC10NC2SH6C10ClC2H9C10ClC2H9Zn2C4O8
_chemical_formula_sum              "N2 C40 S1 H24 Cl2 Zn2 O8"
_cell_length_a       18.726821288119407
_cell_length_b       10.299769246903262
_cell_length_c       10.299772619071826
_cell_angle_alpha    85.54440032350014
_cell_angle_beta     90.000623822282
_cell_angle_gamma    90.73444235296577

_space_group_name_H-M_alt    "P 1"
_space_group_IT_number       1

loop_
  _space_group_symop_operation_xyz
  'x, y, z'

loop_
  _atom_site_type_symbol
  _atom_site_label
  _atom_site_symmetry_multiplicity
  _atom_site_fract_x
  _atom_site_fract_y
  _atom_site_fract_z
  _atom_site_occupancy
  N   N1        1.0  0.6726402914357973  0.4371412737477742  0.5662700779814396  1.0000
  C   C1        1.0  0.613382098762953  0.40378723423174945  0.5690900557050654  1.0000
  C   C2        1.0  0.5398427381422363  0.3623994694776347  0.5725889060826845  1.0000
  C   C3        1.0  0.5155040787215073  0.23442079391812798  0.5823257572577192  1.0000
  C   C4        1.0  0.4408781487955526  0.22338126821742832  0.5832062314583668  1.0000
  C   C5        1.0  0.4062673497775238  0.343233200579675  0.5741956325449533  1.0000
  C   C6        1.0  0.3279146449679902  0.3644693005404301  0.5724631498915638  1.0000
  C   C7        1.0  0.2795057122716255  0.2611088639877667  0.6045362989583303  1.0000
  C   C8        1.0  0.20589004441506611  0.28224975896603555  0.6026647435111072  1.0000
  C   C9        1.0  0.1794818869465068  0.4067229116038697  0.5689344179711775  1.0000
  C   C10       1.0  0.10367893662070561  0.4282885305222084  0.5670697427804805  1.0000
  N   N2        1.0  0.042739923485430105  0.44562549216786723  0.5655704956749609  1.0000
  C   C11       1.0  0.2269857608709128  0.510204738719309  0.537219724565513  1.0000
  C   C12       1.0  0.3006192685560208  0.4893927928001237  0.5390574193458313  1.0000
  S   S1        1.0  0.4695837227700776  0.4619867716349077  0.5648754586578423  1.0000
  H   H1        1.0  0.5504155890159028  0.15122877476633165  0.5882332004568687  1.0000
  H   H2        1.0  0.4137809071511322  0.12984540111206175  0.5889346238613662  1.0000
  H   H3        1.0  0.2980042295359366  0.16396090210136588  0.6324041067265744  1.0000
  H   H4        1.0  0.1695741674827177  0.20146273089418104  0.627840305576161  1.0000
  H   H5        1.0  0.2071325202100558  0.6070537024638194  0.510953278381455  1.0000
  H   H6        1.0  0.3359796803806921  0.5713106247312895  0.513495819782442  1.0000
  C   C13       1.0  0.8576263779946413  0.06001677355347023  0.5659151737265005  1.0000
  C   C14       1.0  0.8642161102946425  0.0697572097050585  0.4296941462517816  1.0000
  C   C15       1.0  0.8676234386611104  0.957554902052473  0.36068036935370323  1.0000
  C   C16       1.0  0.8643516722531431  0.8344721531337533  0.42971583343864406  1.0000
  C   C17       1.0  0.8577606882801899  0.8227400823548281  0.5659365884941601  1.0000
  C   C18       1.0  0.8544351385343447  0.9360704630546597  0.6332734271305172  1.0000
  C   C19       1.0  0.8745960612123117  0.9689124980131871  0.21656999399134166  1.0000
  C   C20       1.0  0.9208951570460866  0.8870509750920449  0.15399447210938577  1.0000
  C   C21       1.0  0.9273944133082302  0.8979354155011701  0.01834443179733425  1.0000
  C   C22       1.0  0.8878021457130358  0.9904235817310795  0.9436155180014858  1.0000
  Cl  Cl1       1.0  0.8960350794622189  0.0038342190566045503  0.7734403608465914  1.0000
  C   C23       1.0  0.8416390406653239  0.07220883513547172  0.004699864877258928  1.0000
  C   C24       1.0  0.8350131248600325  0.061714093505230494  0.14032985368741957  1.0000
  H   H7        1.0  0.8550880643616925  0.38375827281088015  0.6178188557757265  1.0000
  H   H8        1.0  0.8676981591138271  0.1648552358101125  0.37709884232672364  1.0000
  H   H9        1.0  0.8659733022990895  0.7476881198004688  0.3768243633387238  1.0000
  H   H10       1.0  0.8493512204600604  0.9277880772902504  0.7383616095049326  1.0000
  H   H11       1.0  0.855282964345222  0.4908163607675137  0.617849215401397  1.0000
  H   H12       1.0  0.9527417872275559  0.8158261964189472  0.21003918385827958  1.0000
  H   H13       1.0  0.963363281849236  0.834622945312542  0.9714886067266114  1.0000
  H   H14       1.0  0.8107192149091159  0.14374522410262475  0.9472009775316088  1.0000
  H   H15       1.0  0.7982713724055508  0.1249652256764555  0.18546191004085877  1.0000
  C   C25       1.0  0.8576781728565104  0.44149776638355526  0.184555658083626  1.0000
  C   C26       1.0  0.9306872116762377  0.4743933909354041  0.18100587823863212  1.0000
  C   C27       1.0  0.9676973254517455  0.4909407418657578  0.06207794387614429  1.0000
  C   C28       1.0  0.9307182529691359  0.4741524489172153  0.9457381936084664  1.0000
  C   C29       1.0  0.8577088742402371  0.4412590770912037  0.9472961112170241  1.0000
  C   C30       1.0  0.8215977816951794  0.42511553876308117  0.06718857653381383  1.0000
  C   C31       1.0  0.04493514065524363  0.5257394636488606  0.059375733843900706  1.0000
  C   C32       1.0  0.09196534612340378  0.4661924435389067  0.9762008699978518  1.0000
  C   C33       1.0  0.16464884376847966  0.49905876499916585  0.9738438628738988  1.0000
  C   C34       1.0  0.19122850077786424  0.5916514497529015  0.0542565935396373  1.0000
  Cl  Cl2       1.0  0.2824358430465881  0.6327455136440966  0.05106437972042177  1.0000
  C   C35       1.0  0.14501743987771243  0.6514482265787798  0.13721687356836587  1.0000
  C   C36       1.0  0.07230498670824237  0.6188070894880098  0.13994750475659365  1.0000
  H   H16       1.0  0.829851297834516  0.4290110163836124  0.5133579472795059  1.0000
  H   H17       1.0  0.9591686397605067  0.4854767125142898  0.27107623282893356  1.0000
  H   H18       1.0  0.958773769397892  0.4885417632450054  0.8536901045613123  1.0000
  H   H19       1.0  0.7652745745996916  0.3997384725345573  0.06915899188450303  1.0000
  H   H20       1.0  0.8298962652589363  0.428664909339141  0.6204409921952849  1.0000
  H   H21       1.0  0.07270273747913336  0.3930350404225844  0.9142708640322443  1.0000
  H   H22       1.0  0.20027000400635475  0.45222669164875334  0.9096920011419469  1.0000
  H   H23       1.0  0.16532645942784985  0.7234792903009127  0.1994114612911055  1.0000
  H   H24       1.0  0.037340639929976716  0.6675328486148413  0.20377493173268754  1.0000
  Zn  Zn1       1.0  0.7794430514182464  0.439586146263426  0.5660756953754282  1.0000
  Zn  Zn2       1.0  0.935937152418121  0.4431699528684094  0.5657755233151587  1.0000
  C   C37       1.0  0.8577005615315503  0.4361305397530857  0.8031217177537942  1.0000
  C   C38       1.0  0.8576813515091589  0.44662723708380975  0.32872962517191223  1.0000
  C   C39       1.0  0.8577313967302058  0.6785706960799524  0.5607573908254104  1.0000
  C   C40       1.0  0.8576504626380848  0.20418551921903072  0.5710940213977043  1.0000
  O   O1        1.0  0.9170711130501062  0.44970310453064655  0.3770018116803062  1.0000
  O   O2        1.0  0.9170862014349626  0.43577371899605954  0.754621333722267  1.0000
  O   O3        1.0  0.9171103007141611  0.6315471925477989  0.5589104265333935  1.0000
  O   O4        1.0  0.9170469603677887  0.25392963907663096  0.5727126215968632  1.0000
  O   O5        1.0  0.7983331900648225  0.6288264588336427  0.5591385971893268  1.0000
  O   O6        1.0  0.7983090910542863  0.433054545598255  0.7548494351763959  1.0000
  O   O7        1.0  0.7982940026461209  0.4469838863667776  0.3772283517269452  1.0000
  O   O8        1.0  0.7982698499631662  0.25121041159347723  0.5729392590114228  1.0000
