data_image0
_chemical_formula_structural       NC5NC3BrH3C9H10C6ClH5Zn2C4O8
_chemical_formula_sum              "N2 C27 Br1 H18 Cl1 Zn2 O8"
_cell_length_a       13.839083392302014
_cell_length_b       10.297183801781404
_cell_length_c       10.302974078461048
_cell_angle_alpha    85.53397833117516
_cell_angle_beta     90.00087565585007
_cell_angle_gamma    90.02359494799444

_space_group_name_H-M_alt    "P 1"
_space_group_IT_number       1

loop_
  _space_group_symop_operation_xyz
  'x, y, z'

loop_
  _atom_site_type_symbol
  _atom_site_label
  _atom_site_symmetry_multiplicity
  _atom_site_fract_x
  _atom_site_fract_y
  _atom_site_fract_z
  _atom_site_occupancy
  N   N1        1.0  0.9098575818311081  0.4222396026553777  0.5672945678270469  1.0000
  C   C1        1.0  0.8378566693657903  0.3649058385589279  0.5695403142325777  1.0000
  C   C2        1.0  0.748149402796609  0.29356281291972347  0.5723346571849113  1.0000
  C   C3        1.0  0.6605908986329176  0.3622102937795443  0.5696460674601871  1.0000
  C   C4        1.0  0.57254619437936  0.29488956765953267  0.5722826405935135  1.0000
  C   C5        1.0  0.482785206752463  0.36565538729654623  0.5695109409152526  1.0000
  N   N2        1.0  0.410629020367177  0.422545558500737  0.5672825341879908  1.0000
  C   C6        1.0  0.571994169568648  0.15864073223675468  0.5776188375369826  1.0000
  C   C7        1.0  0.6591076310713114  0.0898840030684318  0.5803116237316142  1.0000
  C   C8        1.0  0.7473483820085955  0.15656138477869175  0.5777002654055878  1.0000
  Br  Br1       1.0  0.8647541719280933  0.05738255128929137  0.5815846925964874  1.0000
  H   H1        1.0  0.6609635806787538  0.46779160999878244  0.5655107868424063  1.0000
  H   H2        1.0  0.5043012226108451  0.10562126324207566  0.5796951083457604  1.0000
  H   H3        1.0  0.6579717454563904  0.9845271933471357  0.5844377716599172  1.0000
  C   C9        1.0  0.16025130621083503  0.040917012762820455  0.5674725168291104  1.0000
  C   C10       1.0  0.1574344130579972  0.050775280503127185  0.4308571032923449  1.0000
  C   C11       1.0  0.15599101281572803  0.9392094718238582  0.36086503188538854  1.0000
  C   C12       1.0  0.15742309307382074  0.8156041807771148  0.4303276021883242  1.0000
  C   C13       1.0  0.1602445570020803  0.8038581352344132  0.5671158142354036  1.0000
  C   C14       1.0  0.16163932834548086  0.9169906678023183  0.6347953493923646  1.0000
  C   C15       1.0  0.152944076616512  0.9593040791376829  0.2131058155310419  1.0000
  C   C16       1.0  0.09636391945641852  0.8605526014759449  0.1408367852426673  1.0000
  C   C17       1.0  0.2064485524803383  0.8609280671951405  0.1367099237827405  1.0000
  H   H4        1.0  0.16134592065154307  0.36465676559081156  0.6201148174071371  1.0000
  H   H5        1.0  0.15634713980027626  0.14600348121308127  0.3781160163748556  1.0000
  H   H6        1.0  0.1563636689454348  0.7280038302524113  0.3790511251061377  1.0000
  H   H7        1.0  0.16381213625017477  0.9086573640627393  0.7401970097733732  1.0000
  H   H8        1.0  0.1655606720564642  0.5744567048471259  0.8254702306579896  1.0000
  H   H9        1.0  0.15196562487997545  0.06001904763974775  0.1656134058489207  1.0000
  H   H10       1.0  0.06411988020160586  0.7768953917034773  0.19991946039080855  1.0000
  H   H11       1.0  0.06227412561604395  0.9014047497038751  0.048983927434034236  1.0000
  H   H12       1.0  0.24107501622084856  0.7774997323982117  0.19328642994325107  1.0000
  H   H13       1.0  0.23669838203095958  0.9019972912847739  0.042443899209062996  1.0000
  C   C18       1.0  0.16024793174389673  0.4223875900977956  0.18605168566664743  1.0000
  C   C19       1.0  0.14344096347459878  0.2874541256367007  0.19534883438642536  1.0000
  C   C20       1.0  0.1351018537841826  0.2205038157872261  0.0830050348106195  1.0000
  C   C21       1.0  0.1434410066904972  0.2874541990277266  0.9602409353799849  1.0000
  C   C22       1.0  0.1602479292797636  0.4223875230406687  0.9485367047714748  1.0000
  C   C23       1.0  0.168569504303129  0.4891965394313523  0.0620950533912008  1.0000
  Cl  Cl1       1.0  0.11410596079953428  0.051939863152109966  0.09612292499961939  1.0000
  H   H14       1.0  0.1665793837685017  0.4732146975514147  0.5098525492876502  1.0000
  H   H15       1.0  0.13675645286006155  0.23378793585744662  0.2895717572548784  1.0000
  H   H16       1.0  0.13675652038282693  0.23378791736231122  0.8743707911880185  1.0000
  H   H17       1.0  0.1815314993405224  0.593261277180658  0.05399648821888836  1.0000
  H   H18       1.0  0.16657919989985603  0.4732146859433886  0.616824918816056  1.0000
  Zn  Zn1       1.0  0.05436940471681262  0.422324411987328  0.5672985997721385  1.0000
  Zn  Zn2       1.0  0.2661171897166754  0.42245010162308305  0.5672891615918696  1.0000
  C   C24       1.0  0.16024580663891808  0.417212434155936  0.8044131020156394  1.0000
  C   C25       1.0  0.160243100059259  0.4275637199047648  0.33017478590322935  1.0000
  C   C26       1.0  0.1602408455185147  0.6596460167714908  0.5620098042007113  1.0000
  C   C27       1.0  0.1602479889387829  0.1851285765074513  0.572578153666703  1.0000
  O   O1        1.0  0.24059865942660874  0.42934290758859084  0.3785402358326626  1.0000
  O   O2        1.0  0.24060191658493335  0.41552766200095675  0.7560401154618088  1.0000
  O   O3        1.0  0.24059682716420072  0.6112958453110668  0.5602977368495206  1.0000
  O   O4        1.0  0.24060367659208562  0.23357473352841618  0.5742825171014385  1.0000
  O   O5        1.0  0.07988284558227554  0.6111997800405176  0.5603052442589604  1.0000
  O   O6        1.0  0.07988793498476056  0.41543315747068915  0.7560475529190944  1.0000
  O   O7        1.0  0.0798846778911384  0.4292483577898157  0.3785461124280174  1.0000
  O   O8        1.0  0.0798896950527439  0.23348017443822777  0.5742884910366974  1.0000
