data_image0
_chemical_formula_structural       NC9NC3OH6C7OC4NC3H7C6SCOC6H9Zn2C4O8
_chemical_formula_sum              "N3 C43 O11 H22 S1 Zn2"
_cell_length_a       15.78231758774541
_cell_length_b       10.299371701877257
_cell_length_c       10.302041481415108
_cell_angle_alpha    85.56120269447774
_cell_angle_beta     90.08006893222067
_cell_angle_gamma    89.64160960478581

_space_group_name_H-M_alt    "P 1"
_space_group_IT_number       1

loop_
  _space_group_symop_operation_xyz
  'x, y, z'

loop_
  _atom_site_type_symbol
  _atom_site_label
  _atom_site_symmetry_multiplicity
  _atom_site_fract_x
  _atom_site_fract_y
  _atom_site_fract_z
  _atom_site_occupancy
  N   N1        1.0  0.7980821260766601  0.41375939847643184  0.5707177364200018  1.0000
  C   C1        1.0  0.7495405156218266  0.33168750914460254  0.5947635930992443  1.0000
  C   C2        1.0  0.689274305766287  0.22981634498933384  0.6246106964002809  1.0000
  C   C3        1.0  0.7089219713460954  0.10184977342014132  0.6620240754318905  1.0000
  C   C4        1.0  0.6321841567785608  0.03983213822993803  0.6802305984778674  1.0000
  C   C5        1.0  0.5704145462131427  0.13454203285999733  0.6525816873826458  1.0000
  C   C6        1.0  0.47732151971015074  0.11703158978608252  0.657785294820588  1.0000
  C   C7        1.0  0.42358894217209986  0.2243971823038444  0.6262767924382229  1.0000
  C   C8        1.0  0.33538077922347  0.21003903636184834  0.6305507849315855  1.0000
  C   C9        1.0  0.2809520690209165  0.3205284892812761  0.5981172816842903  1.0000
  N   N2        1.0  0.2372042791712073  0.4093477547863735  0.5720436423019928  1.0000
  C   C10       1.0  0.3002238878680984  0.08815549859179073  0.6663822072437761  1.0000
  C   C11       1.0  0.35302555865246316  0.9810118799436404  0.6978299228351897  1.0000
  C   C12       1.0  0.44104801332674626  0.9949755850159423  0.6936720721519445  1.0000
  O   O1        1.0  0.6068860590451166  0.24678560203530475  0.6197166957964915  1.0000
  H   H1        1.0  0.7713773479073512  0.058694871964239725  0.6745903703573328  1.0000
  H   H2        1.0  0.62344011972182  0.937858914315487  0.7100595600030408  1.0000
  H   H3        1.0  0.4502054753228296  0.31924418801299126  0.5983888718750838  1.0000
  H   H4        1.0  0.2321061766033126  0.07599489583945472  0.6699999346606257  1.0000
  H   H5        1.0  0.32567878542834056  0.886813297445475  0.7255276106039168  1.0000
  H   H6        1.0  0.4801245464345771  0.9101102908409987  0.7185891256675923  1.0000
  C   C13       1.0  0.01760293126798861  0.0301835989206154  0.5712535945943185  1.0000
  C   C14       1.0  0.021725610956177196  0.039530483602267845  0.43463340260470124  1.0000
  C   C15       1.0  0.02284286789327926  0.9270855682945701  0.365660676074135  1.0000
  C   C16       1.0  0.021736078891881894  0.8042619525732615  0.43495075517822723  1.0000
  C   C17       1.0  0.017691559395872195  0.7929134744916536  0.5715190116597473  1.0000
  C   C18       1.0  0.015425457595396045  0.9064781849489465  0.6388637485754871  1.0000
  C   C19       1.0  0.028086000577942836  0.9368025156020531  0.22146056366968625  1.0000
  O   O2        1.0  0.06886932105654964  0.8506650275969584  0.16665080416855615  1.0000
  C   C20       1.0  0.9870487334788736  0.04415648984275422  0.13944380242794985  1.0000
  C   C21       1.0  0.023342914503898804  0.08847777070386531  0.01961143156580736  1.0000
  C   C22       1.0  0.9845402063488661  0.18879815261004174  0.9407220843958216  1.0000
  C   C23       1.0  0.022478273240409408  0.23428772777243956  0.8187090438942906  1.0000
  N   N3        1.0  0.052978789324766185  0.2708517275802904  0.720628264383762  1.0000
  C   C24       1.0  0.9088107661995516  0.24472345942056958  0.9806557869060915  1.0000
  C   C25       1.0  0.8718013872180866  0.20019934040930415  0.09874685900593017  1.0000
  C   C26       1.0  0.9103608141563233  0.10017888101185957  0.1776240766891366  1.0000
  H   H7        1.0  0.025021637891496695  0.1344394501295294  0.3817692116386642  1.0000
  H   H8        1.0  0.023225390365875218  0.7174278573368232  0.38195550234402775  1.0000
  H   H9        1.0  0.012247636372601841  0.8984685234316228  0.7441881801182919  1.0000
  H   H10       1.0  0.08210487932583654  0.045807226669748013  0.9882194197138525  1.0000
  H   H11       1.0  0.8782681812100291  0.3222674330917681  0.9203382939095164  1.0000
  H   H12       1.0  0.8128947917540912  0.24288792276802273  0.12898570009279964  1.0000
  H   H13       1.0  0.8797453326886974  0.06574529560562326  0.2676666923855382  1.0000
  C   C27       1.0  0.01766314541820767  0.41167765660163846  0.1900993682391301  1.0000
  C   C28       1.0  0.05652215802086211  0.5343859612764201  0.17934652011962804  1.0000
  C   C29       1.0  0.07623403275709184  0.5949141733129997  0.05704183785837769  1.0000
  C   C30       1.0  0.05660252777269956  0.533981290365354  0.9442412104591434  1.0000
  C   C31       1.0  0.01763136833282353  0.4114194164109586  0.9526732733147232  1.0000
  C   C32       1.0  0.9984259236408514  0.35084756100300973  0.07617289782469294  1.0000
  S   S1        1.0  0.1266318461954421  0.7509411168672013  0.04472589311320107  1.0000
  C   C33       1.0  0.23100045163537564  0.680091714099383  0.047585171141543155  1.0000
  O   O3        1.0  0.26415770829819807  0.6565857909147641  0.9406169651635112  1.0000
  C   C34       1.0  0.2776999230297357  0.6482797917006147  0.17123978861983158  1.0000
  C   C35       1.0  0.3528573647070068  0.5738011829886907  0.17163336311175637  1.0000
  C   C36       1.0  0.39701615812752156  0.542460722620085  0.28770802983905286  1.0000
  C   C37       1.0  0.3669168715550317  0.5851107370895832  0.40456944121270166  1.0000
  C   C38       1.0  0.2926700904350299  0.6594213856888469  0.405558827963261  1.0000
  C   C39       1.0  0.24825843237773226  0.6911385219993151  0.2897829337828288  1.0000
  H   H14       1.0  0.944293736753081  0.18050834951886863  0.4176746255356849  1.0000
  H   H15       1.0  0.07174913145157613  0.5831608756768667  0.26572383983464287  1.0000
  H   H16       1.0  0.07218860336049453  0.5824210659963152  0.8503337990506621  1.0000
  H   H17       1.0  0.9684703616666472  0.25624796514374615  0.08354202842715708  1.0000
  H   H18       1.0  0.3773287845888442  0.5390973494916216  0.08237662117808497  1.0000
  H   H19       1.0  0.45460627994365743  0.4848975332197491  0.28701509131435765  1.0000
  H   H20       1.0  0.40117737206958637  0.560715307496378  0.4943265954758562  1.0000
  H   H21       1.0  0.2695142143013558  0.692724961484811  0.4961730979281125  1.0000
  H   H22       1.0  0.1913114308512014  0.7496373094273692  0.29370540016037183  1.0000
  Zn  Zn1       1.0  0.9248032895385306  0.41248282188124974  0.5711078548649828  1.0000
  Zn  Zn2       1.0  0.11048308554243813  0.41061372828857556  0.5716641342055798  1.0000
  C   C40       1.0  0.017634861344792738  0.4062945720542468  0.8085286452099383  1.0000
  C   C41       1.0  0.01765354153886055  0.4168035962859657  0.3342434779444514  1.0000
  C   C42       1.0  0.01767065909541742  0.6487431039691707  0.5662947733828774  1.0000
  C   C43       1.0  0.017617680244512025  0.1743535046786224  0.5764774182624706  1.0000
  O   O4        1.0  0.08811483263597908  0.4178089314358735  0.3828306610733232  1.0000
  O   O5        1.0  0.08810023897836511  0.4038696585168106  0.7603632911225447  1.0000
  O   O6        1.0  0.08812819616304862  0.5996499233229773  0.5647577234014323  1.0000
  O   O7        1.0  0.0880868120964986  0.2220286765907149  0.5784361312541111  1.0000
  O   O8        1.0  0.9471994996210692  0.6010678742183564  0.5643358576197912  1.0000
  O   O9        1.0  0.9471715426167077  0.4052891697438552  0.7599413566532859  1.0000
  O   O10       1.0  0.9471861363905211  0.4192283979348663  0.38240716552343135  1.0000
  O   O11       1.0  0.9471581158424367  0.22344813376794592  0.5780127330478841  1.0000
