data_image0
_chemical_formula_structural       NC9NC3OH6C9H8C6OCH7Zn2C4O8
_chemical_formula_sum              "N2 C32 O10 H21 Zn2"
_cell_length_a       15.78231758774541
_cell_length_b       9.275152443626249
_cell_length_c       9.273891588657152
_cell_angle_alpha    85.88202133130156
_cell_angle_beta     89.76748324947235
_cell_angle_gamma    90.20707041648353

_space_group_name_H-M_alt    "P 1"
_space_group_IT_number       1

loop_
  _space_group_symop_operation_xyz
  'x, y, z'

loop_
  _atom_site_type_symbol
  _atom_site_label
  _atom_site_symmetry_multiplicity
  _atom_site_fract_x
  _atom_site_fract_y
  _atom_site_fract_z
  _atom_site_occupancy
  N   N1        1.0  0.8122580287436154  0.5553547408283627  0.4074435190577561  1.0000
  C   C1        1.0  0.7631019105120047  0.46444795947710893  0.4344814247494424  1.0000
  C   C2        1.0  0.7020729458960767  0.3516105504536142  0.468042426716513  1.0000
  C   C3        1.0  0.7207627495785428  0.20986778258093763  0.5101123217483718  1.0000
  C   C4        1.0  0.6435604538339379  0.1411744384362008  0.5305837792455934  1.0000
  C   C5        1.0  0.5824996246253507  0.2460807241644114  0.499493056357972  1.0000
  C   C6        1.0  0.4892752305599825  0.2266860782435034  0.5053431012653885  1.0000
  C   C7        1.0  0.43634672950821585  0.34560884238174094  0.4699147117020227  1.0000
  C   C8        1.0  0.34803082296918586  0.32970576972266796  0.4747195554728105  1.0000
  C   C9        1.0  0.2944296134560564  0.45208857043376  0.438251206356125  1.0000
  N   N2        1.0  0.2513470319546061  0.5504685397271505  0.40893392976403287  1.0000
  C   C10       1.0  0.3119609075920711  0.19470295351057731  0.5150077740595962  1.0000
  C   C11       1.0  0.3639601488777496  0.0760261026671032  0.5503677520832861  1.0000
  C   C12       1.0  0.45208739175388063  0.09149227961841477  0.5456934934839313  1.0000
  O   O1        1.0  0.6198114803642135  0.3704073289745944  0.46253834482743894  1.0000
  H   H1        1.0  0.7828952806809258  0.16206652486865614  0.5242433648012763  1.0000
  H   H2        1.0  0.6340530677899054  0.02822348171624101  0.5641250717727153  1.0000
  H   H3        1.0  0.4636737739480561  0.45066492387073076  0.4385580937607154  1.0000
  H   H4        1.0  0.2437519506161927  0.18123385604625697  0.5190748713273745  1.0000
  H   H5        1.0  0.3359077202895001  0.9716882433332212  0.5815104700323339  1.0000
  H   H6        1.0  0.49052831499603433  0.997491939104362  0.5737102422800275  1.0000
  C   C13       1.0  0.029302454125234897  0.1293204613651431  0.40965176048814356  1.0000
  C   C14       1.0  0.9991332931994186  0.21129028320785379  0.28709756917942997  1.0000
  C   C15       1.0  0.9768471716861216  0.14497094287087386  0.16227753215418517  1.0000
  C   C16       1.0  0.9843819262199984  0.995502168682249  0.15754060212227292  1.0000
  C   C17       1.0  0.012897625090529274  0.911853258503407  0.27905430486033267  1.0000
  C   C18       1.0  0.03431059164788319  0.9764917967444294  0.406738162852131  1.0000
  C   C19       1.0  0.9618439658120986  0.9274374240764779  0.02828343900956276  1.0000
  C   C20       1.0  0.9429737226067503  0.8704156837918484  0.9200508369794552  1.0000
  C   C21       1.0  0.920078420235721  0.8012178822186281  0.7887295577280131  1.0000
  H   H7        1.0  0.15011756522047026  0.21222581510853059  0.6979210220688643  1.0000
  H   H8        1.0  0.9946716616751885  0.3278533257182552  0.2866290373517681  1.0000
  H   H9        1.0  0.95449563982762  0.21061681334040983  0.06885098298176448  1.0000
  H   H10       1.0  0.01647783709154771  0.7954670937039193  0.27504555720624535  1.0000
  H   H11       1.0  0.11292581138489055  0.682094741908623  0.6038910202746008  1.0000
  H   H12       1.0  0.9355237632184196  0.6844457229077775  0.8022475177432227  1.0000
  H   H13       1.0  0.8511827454952641  0.8143890060671211  0.7687634060998016  1.0000
  H   H14       1.0  0.956159728572089  0.8523227565744735  0.6955539776934082  1.0000
  C   C22       1.0  0.03317192788666488  0.5490703896221456  0.9849374976944442  1.0000
  C   C23       1.0  0.10291703285299708  0.609224785651092  0.053537175181921366  1.0000
  C   C24       1.0  0.16791992824505697  0.6802038724411854  0.973700050113154  1.0000
  C   C25       1.0  0.1634107828136706  0.6913874404780429  0.8222056214678605  1.0000
  C   C26       1.0  0.09544052446748852  0.630339823334021  0.7522727917968908  1.0000
  C   C27       1.0  0.030441091717551487  0.5567417816157352  0.8314524388373277  1.0000
  O   O2        1.0  0.23534070419417022  0.7386080096707668  0.04893088947833756  1.0000
  C   C28       1.0  0.305559194972717  0.8137458596980793  0.9818302563945388  1.0000
  H   H15       1.0  0.8311206811751397  0.4627175160582595  0.09557538555146028  1.0000
  H   H16       1.0  0.21254301044084667  0.7459261833602955  0.7572597144841624  1.0000
  H   H17       1.0  0.09480083469851919  0.6377817073871415  0.6351637274616697  1.0000
  H   H18       1.0  0.8956625728837246  0.49287145601506527  0.555778426891937  1.0000
  H   H19       1.0  0.2833932296607615  0.9116119485498102  0.9170217742254971  1.0000
  H   H20       1.0  0.3404631934829201  0.7417632906145678  0.9117837079352356  1.0000
  H   H21       1.0  0.3491334828724486  0.8477419401824244  0.06670243597785606  1.0000
  Zn  Zn1       1.0  0.9389695769743918  0.5539409110702453  0.4078819491735113  1.0000
  Zn  Zn2       1.0  0.12463534762482205  0.5518707032982391  0.4085073225253696  1.0000
  C   C29       1.0  0.030921431682162884  0.5495453187836583  0.6714627638506165  1.0000
  C   C30       1.0  0.03268553068443203  0.556268094295391  0.1449266498849553  1.0000
  C   C31       1.0  0.03337810899988234  0.8163063511239563  0.40154531028557433  1.0000
  C   C32       1.0  0.030228779518999493  0.2895053303104256  0.4148441860404573  1.0000
  O   O3        1.0  0.10298144649491103  0.5578917836656543  0.19885781844960904  1.0000
  O   O4        1.0  0.10154153468740112  0.5463492976657687  0.6180058280240247  1.0000
  O   O5        1.0  0.10352437803202515  0.7617622291067985  0.4000455662019199  1.0000
  O   O6        1.0  0.10099854020476523  0.3424788622704389  0.4168179719527804  1.0000
  O   O7        1.0  0.962606321035867  0.7633327528060072  0.3995712995251042  1.0000
  O   O8        1.0  0.9606234881803741  0.5479215537176072  0.6175314785357529  1.0000
  O   O9        1.0  0.9620634053373353  0.5594639737462863  0.19838173623353514  1.0000
  O   O10       1.0  0.9600804986341295  0.34405104301321865  0.41634199783464365  1.0000
