data_image0
_chemical_formula_structural       NC8O2C5NC2H8C14H10C7N2C6H12Zn2C4O8
_chemical_formula_sum              "N4 C46 O10 H30 Zn2"
_cell_length_a       21.348045465568166
_cell_length_b       17.567807274406363
_cell_length_c       17.181329709859032
_cell_angle_alpha    86.22462297385408
_cell_angle_beta     91.04510560366482
_cell_angle_gamma    90.53711657685788

_space_group_name_H-M_alt    "P 1"
_space_group_IT_number       1

loop_
  _space_group_symop_operation_xyz
  'x, y, z'

loop_
  _atom_site_type_symbol
  _atom_site_label
  _atom_site_symmetry_multiplicity
  _atom_site_fract_x
  _atom_site_fract_y
  _atom_site_fract_z
  _atom_site_occupancy
  N   N1        1.0  0.5814016579215737  0.8301682072814371  0.14602052659272047  1.0000
  C   C1        1.0  0.5278387395359242  0.825957579042121  0.13533257399769438  1.0000
  C   C2        1.0  0.46121171794610955  0.820719988783743  0.12203796380196064  1.0000
  C   C3        1.0  0.4362644422461017  0.7639642558615288  0.0768167091291938  1.0000
  C   C4        1.0  0.3715497962420937  0.7588176708319297  0.06386790001697429  1.0000
  C   C5        1.0  0.33094000284058067  0.8105230423590699  0.0960459733419945  1.0000
  C   C6        1.0  0.35645653463756993  0.8673287690931593  0.14145399883750553  1.0000
  C   C7        1.0  0.4211891381085006  0.8723543533162126  0.15431681506630712  1.0000
  C   C8        1.0  0.2624110009314785  0.8053281272741735  0.08264520182861768  1.0000
  O   O1        1.0  0.23995225421031313  0.7550815881633535  0.040677463132302916  1.0000
  O   O2        1.0  0.22302689808087892  0.8584493085125946  0.11406080522313744  1.0000
  C   C9        1.0  0.157809507813487  0.851148931127522  0.12059144629753327  1.0000
  C   C10       1.0  0.1275773346576049  0.7796840515189758  0.13048712974134635  1.0000
  C   C11       1.0  0.062450042531960605  0.7753152217545611  0.13746045874696589  1.0000
  C   C12       1.0  0.026977949391717902  0.8420793722826091  0.1352401858611274  1.0000
  C   C13       1.0  0.9599552238715146  0.8375389211585524  0.14249100280247307  1.0000
  N   N2        1.0  0.9060733159650193  0.8338883782279672  0.14831993460688975  1.0000
  C   C14       1.0  0.0569444463491037  0.9132786015875695  0.12655003755295624  1.0000
  C   C15       1.0  0.12206042830733163  0.917646114293313  0.11964319582884975  1.0000
  H   H1        1.0  0.4668173826990262  0.7236740004767549  0.05157023685355133  1.0000
  H   H2        1.0  0.3533657570884471  0.7143882625592402  0.02871450382521956  1.0000
  H   H3        1.0  0.32647946242372033  0.9079186154613558  0.16709780654281037  1.0000
  H   H4        1.0  0.4400018344196783  0.9165004126264993  0.18944427567898936  1.0000
  H   H5        1.0  0.1541095714573136  0.7274046136122542  0.1346270667414361  1.0000
  H   H6        1.0  0.0398263102679947  0.7199272592039949  0.14509446829590822  1.0000
  H   H7        1.0  0.03003287320968241  0.9653459482179643  0.12520529668569935  1.0000
  H   H8        1.0  0.14485294917443683  0.9729501607154668  0.11304147850833823  1.0000
  C   C16       1.0  0.743814339872424  0.6084390020692119  0.1471810989559873  1.0000
  C   C17       1.0  0.6954740880345648  0.5696878620903729  0.10908406212137767  1.0000
  C   C18       1.0  0.695575460171651  0.49009218373485103  0.10905336986931846  1.0000
  C   C19       1.0  0.7439189364580416  0.44826119668560704  0.14707959018678718  1.0000
  C   C20       1.0  0.7922373740877484  0.48631443438373545  0.18514400324582847  1.0000
  C   C21       1.0  0.7922520177017236  0.5659063638277256  0.18522630844168164  1.0000
  C   C22       1.0  0.7439079579579816  0.36634390678227813  0.14710326596891943  1.0000
  C   C23       1.0  0.7438682701372743  0.29771765470553024  0.14713282850301423  1.0000
  C   C24       1.0  0.7437935752246352  0.21579930735370154  0.14716562221361695  1.0000
  C   C25       1.0  0.8004833932055815  0.17633263394678034  0.14857188846379366  1.0000
  C   C26       1.0  0.8004687878731561  0.09673312119841489  0.14855708486002306  1.0000
  C   C27       1.0  0.7436667010149594  0.05561183802199393  0.14716612730944756  1.0000
  C   C28       1.0  0.6868903122032769  0.09577816535571368  0.14578440514069735  1.0000
  C   C29       1.0  0.6870295645608095  0.17537614005063332  0.14578345615759203  1.0000
  H   H9        1.0  0.694926236740456  0.7919549200107899  0.10868534372527827  1.0000
  H   H10       1.0  0.6575636493646005  0.6007865199067737  0.07929697824013182  1.0000
  H   H11       1.0  0.657961564225787  0.4611922285833326  0.07938463335299284  1.0000
  H   H12       1.0  0.8298695600028031  0.4544753615835867  0.21478362916829352  1.0000
  H   H13       1.0  0.830139383805879  0.5940805618958093  0.2150641928836564  1.0000
  H   H14       1.0  0.8446871735419317  0.20707773033698404  0.14965324969603  1.0000
  H   H15       1.0  0.8449145233258513  0.06748551483704891  0.14961837864378036  1.0000
  H   H16       1.0  0.6424015995612685  0.06574837234864361  0.14472638402486016  1.0000
  H   H17       1.0  0.6428927932633259  0.20536899981418316  0.14472552749599232  1.0000
  H   H18       1.0  0.8008250324224586  0.8745030306610629  0.14829906924763414  1.0000
  C   C30       1.0  0.7415491595868235  0.8293993046432778  0.9187161486803483  1.0000
  C   C31       1.0  0.7891959442354627  0.8350161882859267  0.8632818832979459  1.0000
  C   C32       1.0  0.7747222496864689  0.8327239732155111  0.7837951827040925  1.0000
  C   C33       1.0  0.7123604953578698  0.8244716999945593  0.7580365630211385  1.0000
  C   C34       1.0  0.6646263761716373  0.8192037436111185  0.8134963006036249  1.0000
  C   C35       1.0  0.6790889113971306  0.8215653918188095  0.8929892894589364  1.0000
  C   C36       1.0  0.6977926409583207  0.8224098027368694  0.6733443679149125  1.0000
  N   N3        1.0  0.6515424067079779  0.7813073088582256  0.6487550775940594  1.0000
  N   N4        1.0  0.7341880541789534  0.8684602358063774  0.6182181879661299  1.0000
  C   C37       1.0  0.7370432827402672  0.8561821123984131  0.5364137242603753  1.0000
  C   C38       1.0  0.7346621579412149  0.7823828325477737  0.5094637364017536  1.0000
  C   C39       1.0  0.7387453283267673  0.7717606449535719  0.4297943069494361  1.0000
  C   C40       1.0  0.7459318754702187  0.834651573153781  0.3756310992611369  1.0000
  C   C41       1.0  0.7493743939826213  0.9082696670590921  0.4028897229527444  1.0000
  C   C42       1.0  0.7453314958944383  0.9187822035638873  0.4825782576356876  1.0000
  H   H19       1.0  0.8302288698247177  0.8415662621718645  0.0851175815939994  1.0000
  H   H20       1.0  0.8377693527241195  0.8410872673060067  0.8812378064607691  1.0000
  H   H21       1.0  0.8124938151483285  0.8365302328126007  0.7424468122743031  1.0000
  H   H22       1.0  0.6159501027650479  0.8145653506492389  0.7955620651992774  1.0000
  H   H23       1.0  0.6412770905785353  0.8175564450662034  0.934265231943379  1.0000
  H   H24       1.0  0.623705444687579  0.7465496438169362  0.6859364113654165  1.0000
  H   H25       1.0  0.756919303074051  0.9166836490023917  0.6380002582166919  1.0000
  H   H26       1.0  0.7307701223699209  0.732805419924533  0.5499631008567658  1.0000
  H   H27       1.0  0.7366651585477966  0.7142491064317469  0.4107008158475527  1.0000
  H   H28       1.0  0.7552879449554398  0.9578325960369534  0.3627215315970591  1.0000
  H   H29       1.0  0.7481965613338284  0.9759739925135595  0.5024203052323044  1.0000
  H   H30       1.0  0.7605794520542463  0.8794896232482303  0.18019641899583805  1.0000
  Zn  Zn1       1.0  0.6750949288920517  0.8312397769150256  0.14668858268362217  1.0000
  Zn  Zn2       1.0  0.812380096403475  0.8328106355078884  0.1476582647014134  1.0000
  C   C43       1.0  0.7451030448121354  0.8306255150414755  0.28926448088098866  1.0000
  C   C44       1.0  0.7423734800483641  0.8334258761044381  0.005082453419076869  1.0000
  C   C45       1.0  0.7436616353688432  0.9710509891390664  0.14406878642051635  1.0000
  C   C46       1.0  0.7438148433457222  0.6929994871718407  0.1502781890563638  1.0000
  O   O3        1.0  0.794749136225242  0.835370041202818  0.034435763638597794  1.0000
  O   O4        1.0  0.7969236522554161  0.8298730183008746  0.2606469129443355  1.0000
  O   O5        1.0  0.7957590013406481  0.9432683658198062  0.1434003573966649  1.0000
  O   O6        1.0  0.7959137397325665  0.7219746979240134  0.15168226052330658  1.0000
  O   O7        1.0  0.6915612387142306  0.9420757139636255  0.14266458652673164  1.0000
  O   O8        1.0  0.6927258889262033  0.8286812807444248  0.2599111005625907  1.0000
  O   O9        1.0  0.6905513639746148  0.8341782663622668  0.03369901590739466  1.0000
  O   O10       1.0  0.6917159680406534  0.7207829183080599  0.15094557112006857  1.0000
