data_image0
_chemical_formula_structural       NC5NC3OH4C9H10C7ONH5Zn2C4O8
_chemical_formula_sum              "N3 C28 O10 H19 Zn2"
_cell_length_a       13.84702359539666
_cell_length_b       10.297183801781406
_cell_length_c       9.273042158839656
_cell_angle_alpha    86.13565984305119
_cell_angle_beta     90.0789287002439
_cell_angle_gamma    89.99848952151973

_space_group_name_H-M_alt    "P 1"
_space_group_IT_number       1

loop_
  _space_group_symop_operation_xyz
  'x, y, z'

loop_
  _atom_site_type_symbol
  _atom_site_label
  _atom_site_symmetry_multiplicity
  _atom_site_fract_x
  _atom_site_fract_y
  _atom_site_fract_z
  _atom_site_occupancy
  N   N1        1.0  0.9076001471986771  0.40663544314489863  0.40906549229844336  1.0000
  C   C1        1.0  0.8355249303730108  0.39942422216576623  0.4721242533062695  1.0000
  C   C2        1.0  0.7457642542887533  0.39044472865234053  0.5506456974383205  1.0000
  C   C3        1.0  0.6580972624775699  0.3991194827745154  0.4747883459480593  1.0000
  C   C4        1.0  0.570317746259901  0.3905455149602119  0.5497639424033873  1.0000
  C   C5        1.0  0.4803814012465388  0.3994768555952437  0.47166368676213555  1.0000
  N   N2        1.0  0.4080842160759128  0.40665696994110073  0.4088773075858223  1.0000
  C   C6        1.0  0.57020011566551  0.37327090960482345  0.7008222619713456  1.0000
  C   C7        1.0  0.6574869531753874  0.36458804384652127  0.7767476433787015  1.0000
  C   C8        1.0  0.7455824279050252  0.3731067703077807  0.7022567188033071  1.0000
  O   O1        1.0  0.8325897772432863  0.36440909857473214  0.7783135007207567  1.0000
  H   H1        1.0  0.6581929727695919  0.4125024668965924  0.35776135798063  1.0000
  H   H2        1.0  0.502709841234006  0.3665227372648634  0.7598315066855941  1.0000
  H   H3        1.0  0.6566126363598229  0.3512316111923275  0.893543225929257  1.0000
  H   H4        1.0  0.8342412423183271  0.3519087120473783  0.8876224597736828  1.0000
  C   C9        1.0  0.15785039683745694  0.025172580316596964  0.40917560667616915  1.0000
  C   C10       1.0  0.15486965031570832  0.03359376758982236  0.25750356693237264  1.0000
  C   C11       1.0  0.15334230332923338  0.9212917006895266  0.17979754569586248  1.0000
  C   C12       1.0  0.15485769549090958  0.7984170981810985  0.2569157087161713  1.0000
  C   C13       1.0  0.15784321946027488  0.7881099502298823  0.4087795910475691  1.0000
  C   C14       1.0  0.15931916448844594  0.9019544155990724  0.4839182076568525  1.0000
  C   C15       1.0  0.15011814829503511  0.93983200415562  0.015753525021565018  1.0000
  C   C16       1.0  0.09348292714907114  0.840351590687033  0.9355388369097223  1.0000
  C   C17       1.0  0.20349938880616047  0.8406211026188901  0.9309186708695498  1.0000
  H   H5        1.0  0.15900814397133312  0.34946608113215816  0.46761970504697903  1.0000
  H   H6        1.0  0.1537191205010915  0.12826717583824854  0.19894979152979797  1.0000
  H   H7        1.0  0.1537367727733001  0.7102773630055804  0.19998796120836393  1.0000
  H   H8        1.0  0.16161838898599942  0.8947298498925721  0.6009363715053688  1.0000
  H   H9        1.0  0.1634692051030575  0.5614261995222201  0.6956077081889014  1.0000
  H   H10       1.0  0.14908273480042022  0.040047391573392994  0.9630268926410746  1.0000
  H   H11       1.0  0.06132895286004182  0.7573348778077666  0.0011448045483286556  1.0000
  H   H12       1.0  0.05930144294831387  0.8802558006699889  0.8335739574285728  1.0000
  H   H13       1.0  0.23817450788880046  0.7577689106162461  0.9937188881779422  1.0000
  H   H14       1.0  0.2336176833817205  0.8806804505231925  0.8262521777790308  1.0000
  C   C18       1.0  0.1573850438370621  0.40262646515300227  0.9857149660530772  1.0000
  C   C19       1.0  0.06868538575635386  0.41089479864280243  0.058424839593075095  1.0000
  C   C20       1.0  0.9817295374881095  0.43172841847554744  0.9821905664545012  1.0000
  C   C21       1.0  0.9840087627578361  0.44272467025658874  0.8306853014764424  1.0000
  C   C22       1.0  0.07112747788951301  0.4325490117052002  0.7569675818048696  1.0000
  C   C23       1.0  0.15830858488484648  0.41065602792503003  0.8322402898110046  1.0000
  C   C24       1.0  0.8894463421454826  0.44069229091832945  0.06208063961911247  1.0000
  O   O2        1.0  0.8829950641473768  0.3904217425190434  0.18947977975826658  1.0000
  N   N3        1.0  0.807300253686912  0.5065924770441319  0.9985408659445043  1.0000
  H   H15       1.0  0.39168862226221757  0.45225603847709994  0.08556114700465112  1.0000
  H   H16       1.0  0.9183366538736473  0.45556586472755445  0.7680802012044254  1.0000
  H   H17       1.0  0.3162368311501569  0.43805675610729256  0.5492448914584651  1.0000
  H   H18       1.0  0.8119505281816614  0.5626887078748506  0.9008441729314769  1.0000
  H   H19       1.0  0.7420274044279227  0.5064434553922417  0.0548079521187177  1.0000
  Zn  Zn1       1.0  0.052029045798893  0.406638256511714  0.40901949905690005  1.0000
  Zn  Zn2       1.0  0.2636553063483418  0.40664363891032496  0.40893506941157565  1.0000
  C   C25       1.0  0.1581318850692901  0.4039631960936858  0.6722315407181787  1.0000
  C   C26       1.0  0.15755477816900854  0.4093203397987186  0.14572316744636504  1.0000
  C   C27       1.0  0.15783332565957098  0.6438440631296392  0.40311080314905157  1.0000
  C   C28       1.0  0.15785326546402678  0.1694379127586365  0.41484398269892386  1.0000
  O   O3        1.0  0.23792280559378187  0.41156324057356164  0.19939134385801793  1.0000
  O   O4        1.0  0.2383832922597955  0.40172339650761635  0.6184988697545641  1.0000
  O   O5        1.0  0.2381411207641262  0.5954302445351427  0.40118196982449006  1.0000
  O   O6        1.0  0.23816490475775653  0.21785640081187752  0.41670813574071275  1.0000
  O   O7        1.0  0.07751937517181375  0.5954254946096671  0.4012464327489924  1.0000
  O   O8        1.0  0.07776154656451918  0.4017202065857755  0.6185632550168643  1.0000
  O   O9        1.0  0.07730105807264032  0.4115599889459376  0.19945399622177296  1.0000
  O   O10       1.0  0.07754315735064465  0.2178531409179172  0.41677089617307694  1.0000
