data_image0
_chemical_formula_structural       NC5NC3F3CH3C6ClH5C9H8Zn2C4O8
_chemical_formula_sum              "N2 C28 F3 H16 Cl1 Zn2 O8"
_cell_length_a       13.85151926108384
_cell_length_b       10.30297070629231
_cell_length_c       9.275155815604965
_cell_angle_alpha    86.05280978821669
_cell_angle_beta     90.35750761735815
_cell_angle_gamma    89.9983157295073

_space_group_name_H-M_alt    "P 1"
_space_group_IT_number       1

loop_
  _space_group_symop_operation_xyz
  'x, y, z'

loop_
  _atom_site_type_symbol
  _atom_site_label
  _atom_site_symmetry_multiplicity
  _atom_site_fract_x
  _atom_site_fract_y
  _atom_site_fract_z
  _atom_site_occupancy
  N   N1        1.0  0.9024090814283467  0.40850721174327126  0.4102635222946859  1.0000
  C   C1        1.0  0.8303406707831814  0.40081736094382014  0.47271592319596056  1.0000
  C   C2        1.0  0.7406819163379428  0.391250134866782  0.5504156441798853  1.0000
  C   C3        1.0  0.6528402066279012  0.39896614482068227  0.4749081110183715  1.0000
  C   C4        1.0  0.5656299267505415  0.39125012287709926  0.5504156241257749  1.0000
  C   C5        1.0  0.47532141905650727  0.4008173762115678  0.472716017242341  1.0000
  N   N2        1.0  0.4027308962563094  0.4085071784518277  0.4102636277233136  1.0000
  C   C6        1.0  0.5662528489110983  0.37492104439989443  0.7016066652305358  1.0000
  C   C7        1.0  0.6541089674442581  0.36434323668209734  0.7783759854671777  1.0000
  C   C8        1.0  0.6547902556600892  0.3515838253531398  0.9413600444949699  1.0000
  F   F1        1.0  0.7359416770442866  0.28463284018487567  0.9929493416724026  1.0000
  F   F2        1.0  0.5740728627989373  0.28463281340782  0.9929494409463573  1.0000
  F   F3        1.0  0.6550036094371793  0.4742497477962246  0.9930693932772894  1.0000
  C   C9        1.0  0.7413231758358326  0.3749209588012896  0.7016066848419042  1.0000
  H   H1        1.0  0.6523508307158429  0.4117529147833005  0.3578506464687148  1.0000
  H   H2        1.0  0.4983705194847699  0.3707065148426416  0.7592456680922723  1.0000
  H   H3        1.0  0.8096872728341464  0.3707064416961885  0.7592456270596537  1.0000
  C   C10       1.0  0.15257461241094727  0.027259807711256457  0.4102697667190634  1.0000
  C   C11       1.0  0.252378254122279  0.024332027377685698  0.4380297857609927  1.0000
  C   C12       1.0  0.30189815691716704  0.9059224962286052  0.4518034655385395  1.0000
  C   C13       1.0  0.2523782530682597  0.7892240581821144  0.4380297179791624  1.0000
  C   C14       1.0  0.1525746230586851  0.789744750163776  0.4102698492223279  1.0000
  C   C15       1.0  0.10315929975932736  0.909356038017696  0.39652512561795256  1.0000
  Cl  Cl1       1.0  0.42657668381699054  0.9037685172017075  0.4864822439331407  1.0000
  H   H4        1.0  0.11498032520411106  0.3556657633514746  0.3998122468487788  1.0000
  H   H5        1.0  0.2920725874273442  0.11369284153493875  0.4490704962476215  1.0000
  H   H6        1.0  0.29207254881619543  0.698491647903792  0.4490703926996629  1.0000
  H   H7        1.0  0.0261877024016639  0.9106857035736541  0.37511572007194416  1.0000
  H   H8        1.0  0.11498032163333827  0.4626377987855648  0.39981251895795866  1.0000
  C   C16       1.0  0.15080576650809313  0.40522065413399283  0.9870385469065939  1.0000
  C   C17       1.0  0.07528229630001193  0.4684806647873947  0.054853411246381656  1.0000
  C   C18       1.0  0.006225198211047948  0.540369016983882  0.973568636359374  1.0000
  C   C19       1.0  0.01141090629591202  0.5505027119517757  0.8229868398262985  1.0000
  C   C20       1.0  0.08499163062510687  0.4865451647002146  0.7534636104542605  1.0000
  C   C21       1.0  0.15434346940570598  0.4117838277074519  0.8335009730759149  1.0000
  C   C22       1.0  0.940402333317797  0.625424190794696  0.7393894464316462  1.0000
  C   C23       1.0  0.8809454454793229  0.6881606978051135  0.6693613961161184  1.0000
  C   C24       1.0  0.8088052035176218  0.7642808415292089  0.5843827208770263  1.0000
  H   H9        1.0  0.3748875566767016  0.30047415272606454  0.0999964170359966  1.0000
  H   H10       1.0  0.07094499265497345  0.46488183474005984  0.17164494873268055  1.0000
  H   H11       1.0  0.949254485224236  0.5891658562824909  0.028381661667894464  1.0000
  H   H12       1.0  0.08677538651374951  0.4926500393919394  0.6363173149783462  1.0000
  H   H13       1.0  0.3038596009993354  0.33659998840833194  0.5599186003284249  1.0000
  H   H14       1.0  0.8284231752850145  0.7680110140485621  0.46838373535007305  1.0000
  H   H15       1.0  0.7369030659553673  0.7180495888394566  0.5994089919948089  1.0000
  H   H16       1.0  0.8063619522929757  0.8645284343606949  0.620887451066968  1.0000
  Zn  Zn1       1.0  0.04679118453867903  0.40850380064823105  0.4102718599289817  1.0000
  Zn  Zn2       1.0  0.2583488248030952  0.4085000912435462  0.41026704129227887  1.0000
  C   C25       1.0  0.1536726284982586  0.40537124871732794  0.6735014846391985  1.0000
  C   C26       1.0  0.1514696916376488  0.41163428232842403  0.14703755798776852  1.0000
  C   C27       1.0  0.15254566484301524  0.6455743045210423  0.4045265484779228  1.0000
  C   C28       1.0  0.15259658342413523  0.17142966731616235  0.41601257098948174  1.0000
  O   O1        1.0  0.23197753291436632  0.41377968290315675  0.20073285906788524  1.0000
  O   O2        1.0  0.23373213933764425  0.40322205016295065  0.6198021114427021  1.0000
  O   O3        1.0  0.2328210259164583  0.5971890671454452  0.4026029474748787  1.0000
  O   O4        1.0  0.23288857369361837  0.21981267437130025  0.41793191497400717  1.0000
  O   O5        1.0  0.07225136345388439  0.5971912175230978  0.4026069862413167  1.0000
  O   O6        1.0  0.07316247654955577  0.4032257597517708  0.6198060733627663  1.0000
  O   O7        1.0  0.07140786294841228  0.4137833338148711  0.20073508819454  1.0000
  O   O8        1.0  0.0723189041753263  0.21981631683499622  0.4179342521564271  1.0000
