data_image0
_chemical_formula_structural       NC9NC3OH6C9H9C12H10Zn2C4O8
_chemical_formula_sum              "N2 C37 O9 H25 Zn2"
_cell_length_a       15.78231758774541
_cell_length_b       9.272676604525723
_cell_length_c       10.299141136925908
_cell_angle_alpha    85.79349771759213
_cell_angle_beta     90.10591436666134
_cell_angle_gamma    90.18380166211226

_space_group_name_H-M_alt    "P 1"
_space_group_IT_number       1

loop_
  _space_group_symop_operation_xyz
  'x, y, z'

loop_
  _atom_site_type_symbol
  _atom_site_label
  _atom_site_symmetry_multiplicity
  _atom_site_fract_x
  _atom_site_fract_y
  _atom_site_fract_z
  _atom_site_occupancy
  N   N1        1.0  0.8063976763401545  0.5697223457218861  0.5760245289811585  1.0000
  C   C1        1.0  0.757355973046177  0.47859348908230875  0.599745873039552  1.0000
  C   C2        1.0  0.6964690265211506  0.3654804270077998  0.6291901773954485  1.0000
  C   C3        1.0  0.7153369235956103  0.22339221901495646  0.6660975539988887  1.0000
  C   C4        1.0  0.6382212244834168  0.15453068698053696  0.6840588691546414  1.0000
  C   C5        1.0  0.5770287439254805  0.25969220930875103  0.6567844692265739  1.0000
  C   C6        1.0  0.4838290417359986  0.24024942120751264  0.6619188607466719  1.0000
  C   C7        1.0  0.4307506651466172  0.35946324159452847  0.6308348679034523  1.0000
  C   C8        1.0  0.3424550327862496  0.34352061915026555  0.6350521069913087  1.0000
  C   C9        1.0  0.2886995554371826  0.46620303016761794  0.6030554623193154  1.0000
  N   N2        1.0  0.2454929575663661  0.5648238608611502  0.5773330005117354  1.0000
  C   C10       1.0  0.3065554979782335  0.2081867426101298  0.6704016350999766  1.0000
  C   C11       1.0  0.35870432162996035  0.08921939202756879  0.7014257200232559  1.0000
  C   C12       1.0  0.44681184241904953  0.10472404547446466  0.6973230632853711  1.0000
  O   O1        1.0  0.6141842023398899  0.3843223146114288  0.6243632950017111  1.0000
  H   H1        1.0  0.7775293193752623  0.17547499448788792  0.6784931926377737  1.0000
  H   H2        1.0  0.6288558147202826  0.041304300015190254  0.7134846147850709  1.0000
  H   H3        1.0  0.45794510520446646  0.46477699574616116  0.6033219451668603  1.0000
  H   H4        1.0  0.23836370404656618  0.19468417057235163  0.6739712947424357  1.0000
  H   H5        1.0  0.33078359249410955  0.9846256172167842  0.7287509737627784  1.0000
  H   H6        1.0  0.48537127703431215  0.010493523048108022  0.7219045737684273  1.0000
  C   C13       1.0  0.023548275990475924  0.14381175694970794  0.5750125201304319  1.0000
  C   C14       1.0  0.9896554400527551  0.20826873240286492  0.6824719886337933  1.0000
  C   C15       1.0  0.9635152973658364  0.1244026113711372  0.7931286789294091  1.0000
  C   C16       1.0  0.970424482048947  0.9735749574759055  0.8000495376649892  1.0000
  C   C17       1.0  0.0029289192016976884  0.9076839921745917  0.6915853101438305  1.0000
  C   C18       1.0  0.028350410720022742  0.9907232645561201  0.5783562192273146  1.0000
  C   C19       1.0  0.9412579265749731  0.8902610764536825  0.9247214490834204  1.0000
  C   C20       1.0  0.898433417912404  0.7446467811258296  0.9116627717791156  1.0000
  C   C21       1.0  0.9879111604246037  0.7510818358297666  0.9668823554373918  1.0000
  H   H7        1.0  0.04231818949360911  0.44246746018058536  0.362247259924378  1.0000
  H   H8        1.0  0.9851847526911571  0.32484115653578494  0.6823338163000892  1.0000
  H   H9        1.0  0.9384325561132869  0.17811389583916568  0.8746566856166438  1.0000
  H   H10       1.0  0.05026824480202464  0.9137217096324318  0.2604172950350214  1.0000
  H   H11       1.0  0.9172906644547445  0.9506363482765255  0.006421888005964767  1.0000
  H   H12       1.0  0.894480399195041  0.7054588226385675  0.8126420881060288  1.0000
  H   H13       1.0  0.8493453273153553  0.7163983691940508  0.9864420668198449  1.0000
  H   H14       1.0  0.038285296299600945  0.7156746245106579  0.901481227765127  1.0000
  H   H15       1.0  0.9911163293352037  0.7265883691419519  0.07395199089672821  1.0000
  C   C22       1.0  0.02585372279739161  0.56739166059893  0.195291561813854  1.0000
  C   C23       1.0  0.11444159844481594  0.5819346436841171  0.1938013452620757  1.0000
  C   C24       1.0  0.15945762032617017  0.5891809651144939  0.07591182491302995  1.0000
  C   C25       1.0  0.1146883303729469  0.581688026229324  0.9585354172784827  1.0000
  C   C26       1.0  0.026044960446408128  0.5671433706427818  0.9580771923816664  1.0000
  C   C27       1.0  0.9821734587102009  0.5600823685135843  0.07690313518630809  1.0000
  C   C28       1.0  0.2531746897265262  0.6045677945048689  0.07538009653383093  1.0000
  C   C29       1.0  0.30315108489298903  0.5251510994551647  0.9929956454914439  1.0000
  C   C30       1.0  0.39135661688583134  0.5398134144049005  0.9927337758959447  1.0000
  C   C31       1.0  0.43060258905090154  0.6336942852305525  0.07437958242197196  1.0000
  C   C32       1.0  0.38172244159550583  0.7131083166842258  0.15652265693659695  1.0000
  C   C33       1.0  0.2934967574456699  0.6988077908823188  0.15725570417744006  1.0000
  H   H16       1.0  0.9917730039832917  0.561870936154031  0.5233357003094878  1.0000
  H   H17       1.0  0.14874915286905388  0.5856686697091511  0.2846721492952049  1.0000
  H   H18       1.0  0.14895168771576495  0.5892026269541022  0.8672427266030343  1.0000
  H   H19       1.0  0.913843403993739  0.5488690423216951  0.0773366741336341  1.0000
  H   H20       1.0  0.858685363259231  0.5406064885266286  0.7498604674072964  1.0000
  H   H21       1.0  0.2741244153475557  0.4504117584577567  0.9301027128153763  1.0000
  H   H22       1.0  0.4293222353535324  0.47802675318100746  0.9293770788672017  1.0000
  H   H23       1.0  0.4988872638250017  0.6449036899020875  0.07399468368836759  1.0000
  H   H24       1.0  0.412194598679017  0.7861293651490917  0.21949341682527823  1.0000
  H   H25       1.0  0.25676524309544835  0.7627517670892263  0.2205204880163516  1.0000
  Zn  Zn1       1.0  0.9331110659148157  0.5683048945107703  0.5764096043287115  1.0000
  Zn  Zn2       1.0  0.11877947542662864  0.5662295392629879  0.5769584956817329  1.0000
  C   C34       1.0  0.025974327133407624  0.5614456211364134  0.8138716639988611  1.0000
  C   C35       1.0  0.025918252049937907  0.5730906094100785  0.33949657666335464  1.0000
  C   C36       1.0  0.02743702316245876  0.8306407073914195  0.572548667676366  1.0000
  C   C37       1.0  0.024455482858986678  0.303893791324662  0.5808196352013875  1.0000
  O   O2        1.0  0.09640006677596369  0.5742093511111896  0.38810137354607077  1.0000
  O   O3        1.0  0.09641053289027358  0.5587506450881039  0.7656830847882026  1.0000
  O   O4        1.0  0.09759072893346321  0.7761290918530102  0.570813060969263  1.0000
  O   O5        1.0  0.09521980741080255  0.3568309154017595  0.582971299837671  1.0000
  O   O6        1.0  0.9566706705711329  0.7777035190817875  0.5703967999786383  1.0000
  O   O7        1.0  0.9554904843303341  0.5603268048570809  0.7652667613879054  1.0000
  O   O8        1.0  0.9554800175960148  0.5757854611368505  0.3876834884490672  1.0000
  O   O9        1.0  0.9542997581933162  0.3584070150817329  0.5825535120738718  1.0000
