data_image0
_chemical_formula_structural       NC9NC3OH6C8H6C6SCNH5Zn2C4O8
_chemical_formula_sum              "N3 C31 O9 H17 S1 Zn2"
_cell_length_a       15.78231758774541
_cell_length_b       9.27514070457351
_cell_length_c       10.302218930750287
_cell_angle_alpha    85.68853581932115
_cell_angle_beta     90.10197945546608
_cell_angle_gamma    90.22379856908987

_space_group_name_H-M_alt    "P 1"
_space_group_IT_number       1

loop_
  _space_group_symop_operation_xyz
  'x, y, z'

loop_
  _atom_site_type_symbol
  _atom_site_label
  _atom_site_symmetry_multiplicity
  _atom_site_fract_x
  _atom_site_fract_y
  _atom_site_fract_z
  _atom_site_occupancy
  N   N1        1.0  0.807102148954207  0.5693303310383846  0.5736839477445037  1.0000
  C   C1        1.0  0.7580221708301916  0.4782156218171177  0.5975593730352751  1.0000
  C   C2        1.0  0.6970877159219125  0.36512012017876866  0.6271949295453954  1.0000
  C   C3        1.0  0.7158959383551207  0.22305395931995833  0.6643425741493556  1.0000
  C   C4        1.0  0.6387513152486244  0.15420312308340023  0.6824203096061132  1.0000
  C   C5        1.0  0.5776029989126248  0.25934833404116264  0.6549680711361607  1.0000
  C   C6        1.0  0.4843951273380718  0.23990857507220323  0.6601353140011783  1.0000
  C   C7        1.0  0.4313668237950538  0.3591038803613303  0.6288497697449804  1.0000
  C   C8        1.0  0.34306449241521  0.3431637427792585  0.6330939439410648  1.0000
  C   C9        1.0  0.2893605453817949  0.4658270987873499  0.6008898861548275  1.0000
  N   N2        1.0  0.24619537129390878  0.5644326115237273  0.5750006913601617  1.0000
  C   C10       1.0  0.3071081109239688  0.20785089405323515  0.6686722579256893  1.0000
  C   C11       1.0  0.3592069648594957  0.08890202092579112  0.6998974762171564  1.0000
  C   C12       1.0  0.4473210006920136  0.10440425758779238  0.6957686247136853  1.0000
  O   O1        1.0  0.6148108020202867  0.3839590940085569  0.622336165160541  1.0000
  H   H1        1.0  0.7780682119743093  0.17514416244709527  0.6768192554499974  1.0000
  H   H2        1.0  0.6293383516431474  0.040994307127381946  0.7120375138399921  1.0000
  H   H3        1.0  0.4586055008629165  0.46440127045511154  0.60115881248508  1.0000
  H   H4        1.0  0.238910643365658  0.19435042625444535  0.6722647308593002  1.0000
  H   H5        1.0  0.3312423011218853  0.9843244983615631  0.7273995472130326  1.0000
  H   H6        1.0  0.48584085540482724  0.010188371812634997  0.720509444446113  1.0000
  C   C13       1.0  0.02407884068944366  0.14346952047175598  0.5734266159602592  1.0000
  C   C14       1.0  0.03615292423102345  0.226791836976314  0.45502752917299344  1.0000
  C   C15       1.0  0.05561674001583336  0.1612746492330106  0.34130400289411744  1.0000
  C   C16       1.0  0.06347220171996953  0.011256797526147284  0.34379580480546096  1.0000
  C   C17       1.0  0.050312566233067665  0.9263660219533848  0.4600637622072772  1.0000
  C   C18       1.0  0.02922667754103436  0.9902822566842542  0.5752692666472348  1.0000
  C   C19       1.0  0.0840912062780625  0.9439762913932138  0.22644663894618922  1.0000
  C   C20       1.0  0.1013551767482947  0.887630382610751  0.12820022513818263  1.0000
  H   H7        1.0  0.038002360420385406  0.2197788212883398  0.8924892735883316  1.0000
  H   H8        1.0  0.032508884053580954  0.3436578640976832  0.45103981342522576  1.0000
  H   H9        1.0  0.06536946310460617  0.22791824579667844  0.25157685503653493  1.0000
  H   H10       1.0  0.05458359271464628  0.8097111712920392  0.45991618292150704  1.0000
  H   H11       1.0  0.03534943445661187  0.691660275724691  0.7902310073858754  1.0000
  H   H12       1.0  0.11650923744339464  0.83816881409039  0.04196050560776098  1.0000
  C   C21       1.0  0.026574183534407977  0.5669443031061754  0.1930726674754384  1.0000
  C   C22       1.0  0.10596400554779101  0.49887209305214913  0.1969444679328316  1.0000
  C   C23       1.0  0.14542786943263375  0.46454652781317163  0.08189272753114873  1.0000
  C   C24       1.0  0.10616950759404718  0.49869121419425744  0.9617904520271806  1.0000
  C   C25       1.0  0.026731340447801545  0.5668074591268717  0.9556231781182183  1.0000
  C   C26       1.0  0.9873551811044965  0.6005074194516888  0.07183330707915636  1.0000
  S   S1        1.0  0.246918416849646  0.3782108609459923  0.08827526924713336  1.0000
  C   C27       1.0  0.20153933050595785  0.20351024053115063  0.10002397699714603  1.0000
  N   N3        1.0  0.1717639195027516  0.0889861848251399  0.1077261783349901  1.0000
  H   H13       1.0  0.9963725352376814  0.5929182052349677  0.5189294506669313  1.0000
  H   H14       1.0  0.1374227211973731  0.4719861748373433  0.2890533952817598  1.0000
  H   H15       1.0  0.13776907958621754  0.4716812469408944  0.8736323169841054  1.0000
  H   H16       1.0  0.9261245237348131  0.6529876074750178  0.068000438796725  1.0000
  H   H17       1.0  0.877040083185789  0.6953379772741448  0.7367715539078374  1.0000
  Zn  Zn1       1.0  0.9338149424717495  0.5679131022338859  0.5740714147545687  1.0000
  Zn  Zn2       1.0  0.11948247993265299  0.5658380704430794  0.5746238124555625  1.0000
  C   C28       1.0  0.02666483673358398  0.5610893204663829  0.8114723023293905  1.0000
  C   C29       1.0  0.026634624240310142  0.572663648793241  0.33722306230667365  1.0000
  C   C30       1.0  0.028248216262048986  0.83021759962895  0.5697470261301144  1.0000
  C   C31       1.0  0.025051170839852404  0.30353363801235966  0.578948403769662  1.0000
  O   O2        1.0  0.09711473330562193  0.5737893593562977  0.3858108700033897  1.0000
  O   O3        1.0  0.09710208585726748  0.5583876211247526  0.7633033755850516  1.0000
  O   O4        1.0  0.09837973529668019  0.7757121205132915  0.5681085052439463  1.0000
  O   O5        1.0  0.09583702055309273  0.356464871007693  0.5810056428276884  1.0000
  O   O6        1.0  0.9574603384920999  0.7772863023789496  0.5676895841871101  1.0000
  O   O7        1.0  0.9561826995654694  0.5599635353184019  0.7628843890691721  1.0000
  O   O8        1.0  0.9561953464429821  0.5753652235843355  0.38539032236111304  1.0000
  O   O9        1.0  0.9549176336443591  0.35804072490547445  0.5805851925068866  1.0000
