data_image0
_chemical_formula_structural       NC5OC5NC4H8C9H8C6ClH5Zn2C4O8
_chemical_formula_sum              "N2 C33 O9 H21 Cl1 Zn2"
_cell_length_a       19.189071930511275
_cell_length_b       9.275152443626249
_cell_length_c       10.30297407846105
_cell_angle_alpha    85.36323094855369
_cell_angle_beta     89.9779158844828
_cell_angle_gamma    90.56463589314393

_space_group_name_H-M_alt    "P 1"
_space_group_IT_number       1

loop_
  _space_group_symop_operation_xyz
  'x, y, z'

loop_
  _atom_site_type_symbol
  _atom_site_label
  _atom_site_symmetry_multiplicity
  _atom_site_fract_x
  _atom_site_fract_y
  _atom_site_fract_z
  _atom_site_occupancy
  N   N1        1.0  0.6638553639698082  0.5786213330387928  0.5626010388686249  1.0000
  C   C1        1.0  0.6096463177835878  0.6298502138998899  0.5441562103373261  1.0000
  C   C2        1.0  0.5422172453853988  0.693570404960355  0.5212136180303584  1.0000
  C   C3        1.0  0.5330424905505763  0.8012353860167241  0.4194945334415727  1.0000
  C   C4        1.0  0.4675428159401606  0.8632125394947158  0.3973340563406351  1.0000
  C   C5        1.0  0.4105585660060457  0.8174097021697313  0.475538178729822  1.0000
  O   O1        1.0  0.3459074315362555  0.8834208939376941  0.4511009909220452  1.0000
  C   C6        1.0  0.2806165110594895  0.8171991434089628  0.47497480730558594  1.0000
  C   C7        1.0  0.22427097195600232  0.9033865938682316  0.5049567664899459  1.0000
  C   C8        1.0  0.1581730815980613  0.8417265477808101  0.5279666479773897  1.0000
  C   C9        1.0  0.1477580074099367  0.6930767198337238  0.5198914466326974  1.0000
  C   C10       1.0  0.0797132596260801  0.6295782067117144  0.5434276372971665  1.0000
  N   N2        1.0  0.025009283533161602  0.5785276107795652  0.5623501280099732  1.0000
  C   C11       1.0  0.20362865231294272  0.6065468306695712  0.4879937790841067  1.0000
  C   C12       1.0  0.2697178946411573  0.6682506883476745  0.4650273827778805  1.0000
  C   C13       1.0  0.4202203370888036  0.7107473850399451  0.5788720079093785  1.0000
  C   C14       1.0  0.48571107644809475  0.6487656721810746  0.6010938575472782  1.0000
  H   H1        1.0  0.5764658062551076  0.8373507198064358  0.3575108872679764  1.0000
  H   H2        1.0  0.4609111525458269  0.9465664525657065  0.31863059124991766  1.0000
  H   H3        1.0  0.23186269891004926  0.018439771269733285  0.5111729868628831  1.0000
  H   H4        1.0  0.11525428129939289  0.909895021646605  0.5518507509693342  1.0000
  H   H5        1.0  0.196031230812033  0.4916637824510015  0.4802026819889893  1.0000
  H   H6        1.0  0.31192871452366144  0.6003140479555702  0.4377299264937149  1.0000
  H   H7        1.0  0.377517675693759  0.6770506901521275  0.6433005766669679  1.0000
  H   H8        1.0  0.4923549185857458  0.566575718544192  0.6808848344014211  1.0000
  C   C15       1.0  0.8423799173979938  0.15494273057365082  0.5638024461205333  1.0000
  C   C16       1.0  0.8172406543821508  0.23768865446506032  0.45352460532998035  1.0000
  C   C17       1.0  0.798579166702878  0.1722521522855116  0.34117726053469455  1.0000
  C   C18       1.0  0.804763921689633  0.022908608915132026  0.3368832591288502  1.0000
  C   C19       1.0  0.8285404540428929  0.9384748917085247  0.44622990849270444  1.0000
  C   C20       1.0  0.8464913718114027  0.002195182804622277  0.5611599297593792  1.0000
  C   C21       1.0  0.785883523779482  0.9557640005062474  0.22054020888640793  1.0000
  C   C22       1.0  0.7700756024380474  0.899512749283002  0.12312114459653811  1.0000
  C   C23       1.0  0.7508958145596745  0.8312498057318658  0.004920195213671486  1.0000
  H   H9        1.0  0.9425150261498808  0.236568196760302  0.8230146459251981  1.0000
  H   H10       1.0  0.8135697263908066  0.354207092683247  0.4531187784288242  1.0000
  H   H11       1.0  0.7799471762699829  0.2384967520834349  0.25710697404382876  1.0000
  H   H12       1.0  0.8314745361988656  0.8221641007768278  0.44260614748768345  1.0000
  H   H13       1.0  0.9116753756167248  0.7068788700097771  0.7384546679126616  1.0000
  H   H14       1.0  0.7636354521190425  0.7145246716618838  0.017040078306594493  1.0000
  H   H15       1.0  0.6941762550933253  0.8438470843468795  0.9871862400886218  1.0000
  H   H16       1.0  0.7803254080386374  0.8835907074302358  0.9208639226131505  1.0000
  C   C24       1.0  0.8444356480954377  0.578568959428525  0.1812387109843243  1.0000
  C   C25       1.0  0.8315865869270194  0.4287387795663504  0.19094811514418986  1.0000
  C   C26       1.0  0.8252112689443923  0.3543971252369402  0.07880886546519905  1.0000
  C   C27       1.0  0.8315866184899438  0.42873886103028697  0.9558402158973265  1.0000
  C   C28       1.0  0.8444356459565293  0.5785688849631643  0.9437237302912296  1.0000
  C   C29       1.0  0.8507975557531938  0.6527536469163242  0.05707796067030402  1.0000
  Cl  Cl1       1.0  0.8091597413156653  0.16722363611892455  0.09244176063500809  1.0000
  H   H17       1.0  0.8492760694881057  0.6350074020120644  0.5048842848307451  1.0000
  H   H18       1.0  0.8264762247273342  0.36914781819296616  0.28533500162189895  1.0000
  H   H19       1.0  0.8264762733244163  0.3691477975955242  0.8701340355783597  1.0000
  H   H20       1.0  0.8607071061246043  0.7683071787375282  0.048661451749565376  1.0000
  H   H21       1.0  0.8492759368209031  0.6350073892803957  0.6118566544813162  1.0000
  Zn  Zn1       1.0  0.7680765739058979  0.5785904383425956  0.5625361349765052  1.0000
  Zn  Zn2       1.0  0.9207880339218784  0.57854674828855  0.5624256834252574  1.0000
  C   C30       1.0  0.8444061937493222  0.5728219078631065  0.7996156333781448  1.0000
  C   C31       1.0  0.8444600905157491  0.5843170985003471  0.3253463055646608  1.0000
  C   C32       1.0  0.8457106279886832  0.8420464074264238  0.5564859943700591  1.0000
  C   C33       1.0  0.8431555957559014  0.3150908657385243  0.5684760192318088  1.0000
  O   O2        1.0  0.9024214662879771  0.5862233527229532  0.373668234585939  1.0000
  O   O3        1.0  0.9023492773454254  0.5708814056062621  0.7512095038573032  1.0000
  O   O4        1.0  0.9034018432536102  0.788283594035579  0.5548805960624636  1.0000
  O   O5        1.0  0.9013688483197957  0.3688211746283035  0.5699970450438934  1.0000
  O   O6        1.0  0.7874957073950615  0.788316012019322  0.5549647733887271  1.0000
  O   O7        1.0  0.7864431498944446  0.5709155568049906  0.7512936065553621  1.0000
  O   O8        1.0  0.7865153386394202  0.586257453650574  0.373750776557664  1.0000
  O   O9        1.0  0.7854627206183169  0.36885526523773704  0.5700796843833618  1.0000
