data_image0
_chemical_formula_structural       NC9NC3SH6C7F3H5C6NO2H3Zn2C4O8
_chemical_formula_sum              "N3 C29 S1 H14 F3 O10 Zn2"
_cell_length_a       16.77567553997237
_cell_length_b       9.272718291674593
_cell_length_c       9.273395971720355
_cell_angle_alpha    85.39368926886713
_cell_angle_beta     90.29524247886945
_cell_angle_gamma    90.46558260785916

_space_group_name_H-M_alt    "P 1"
_space_group_IT_number       1

loop_
  _space_group_symop_operation_xyz
  'x, y, z'

loop_
  _atom_site_type_symbol
  _atom_site_label
  _atom_site_symmetry_multiplicity
  _atom_site_fract_x
  _atom_site_fract_y
  _atom_site_fract_z
  _atom_site_occupancy
  N   N1        1.0  0.7457613880795927  0.6147488540483734  0.4275763328158051  1.0000
  C   C1        1.0  0.6907416656907223  0.6690198573566362  0.47423448836661497  1.0000
  C   C2        1.0  0.6224614092342882  0.7363665892877327  0.5321336939213819  1.0000
  C   C3        1.0  0.6240893823419079  0.8330436539920079  0.6385375119911516  1.0000
  C   C4        1.0  0.5482193417174064  0.8809329758649829  0.6739329542607515  1.0000
  C   C5        1.0  0.4865404929069104  0.8217606265951446  0.5949837574589538  1.0000
  C   C6        1.0  0.3999192567736392  0.8505661287972168  0.6072663186973095  1.0000
  C   C7        1.0  0.3435294202015057  0.7629000246861182  0.5418030301108616  1.0000
  C   C8        1.0  0.2617682001690718  0.7894862039015823  0.5528940662890744  1.0000
  C   C9        1.0  0.2047245791194301  0.6988741893351664  0.4858571695428524  1.0000
  N   N2        1.0  0.1588784677637556  0.6260351115490109  0.43196940616691526  1.0000
  C   C10       1.0  0.23556574691648338  0.9040883692669479  0.6292719595606067  1.0000
  C   C11       1.0  0.29086372949019623  0.9919360788252986  0.6942235069711835  1.0000
  C   C12       1.0  0.372465314017761  0.9657496883458374  0.6834630076660538  1.0000
  S   S1        1.0  0.5277024249660216  0.7096158945736765  0.4817295326979529  1.0000
  H   H1        1.0  0.6782962384742268  0.8678792334434519  0.6896814817088037  1.0000
  H   H2        1.0  0.5395633965035922  0.955450810748457  0.756189249546972  1.0000
  H   H3        1.0  0.36275474010460973  0.673268049465358  0.48281439688995453  1.0000
  H   H4        1.0  0.17248412407638844  0.9255936152710232  0.6384272326605089  1.0000
  H   H5        1.0  0.2704608921863872  0.08089294566420382  0.7528540620524073  1.0000
  H   H6        1.0  0.4135618618426129  0.0369813300314239  0.7337629721572654  1.0000
  C   C13       1.0  0.9540629996582022  0.1970901074096021  0.4266027349215705  1.0000
  C   C14       1.0  0.9055750569225913  0.2781158757037956  0.32632996751928034  1.0000
  C   C15       1.0  0.8514350985218698  0.21002442774800503  0.23738671937894826  1.0000
  C   C16       1.0  0.8478987138450256  0.058551344398149574  0.24578828561881713  1.0000
  C   C17       1.0  0.896449453734265  0.9766007223306727  0.34293815319579446  1.0000
  C   C18       1.0  0.9505845024239895  0.04368286186310354  0.432955566555125  1.0000
  C   C19       1.0  0.8015066550427462  0.2987037089978889  0.12791533156213952  1.0000
  F   F1        1.0  0.7809699212445053  0.42901610269469415  0.18015803901272281  1.0000
  F   F2        1.0  0.7319545360383248  0.2257168787093613  0.0970174013166405  1.0000
  F   F3        1.0  0.8446381763994737  0.3259796677157681  0.0019302456339131983  1.0000
  H   H7        1.0  0.04839165029833837  0.27511936420866223  0.7391300442204424  1.0000
  H   H8        1.0  0.9087637883638972  0.39524171649107137  0.31964545130060307  1.0000
  H   H9        1.0  0.8081260993549751  0.003094309574971368  0.1759509953361815  1.0000
  H   H10       1.0  0.8931940180768226  0.8597224899089473  0.34484567382587716  1.0000
  H   H11       1.0  0.12152980858623885  0.9306318557324839  0.6085102497029726  1.0000
  C   C20       1.0  0.9527591911842312  0.6248271936786773  0.005880467964759049  1.0000
  C   C21       1.0  0.8815761705199275  0.6557876650676715  0.07595853059826173  1.0000
  C   C22       1.0  0.8102260263390284  0.6731120117974119  0.9989158189442326  1.0000
  C   C23       1.0  0.808035369877186  0.6598077271003315  0.849497932593942  1.0000
  C   C24       1.0  0.8791656439021976  0.6313160473490642  0.7780002734038346  1.0000
  C   C25       1.0  0.9518883036161473  0.6159457783953846  0.8536778094519102  1.0000
  N   N3        1.0  0.7340605344607484  0.6765799321458303  0.7707155995811723  1.0000
  O   O1        1.0  0.6646589382831765  0.705666224868609  0.840985988570079  1.0000
  O   O2        1.0  0.7315706921024512  0.6646311666153488  0.6376039190122127  1.0000
  H   H12       1.0  0.1278508379087844  0.46810511014604367  0.1229455109421893  1.0000
  H   H13       1.0  0.7564804181081032  0.6955486614750293  0.056907672747759756  1.0000
  H   H14       1.0  0.07124660107359349  0.5146868099691353  0.5827090130012116  1.0000
  Zn  Zn1       1.0  0.8649780635715051  0.6180018881517126  0.4288523948186802  1.0000
  Zn  Zn2       1.0  0.03966182344614477  0.6227701940176027  0.43070511039732023  1.0000
  C   C26       1.0  0.9520747526425648  0.6118819665577948  0.693382829430204  1.0000
  C   C27       1.0  0.9525670342977144  0.6288919849892649  0.16617485134684684  1.0000
  C   C28       1.0  0.9512438294443518  0.8837189648116723  0.4260023651814169  1.0000
  C   C29       1.0  0.9533979049254047  0.3570532524381134  0.43355537892764806  1.0000
  O   O3        1.0  0.018794147030666293  0.6320594245994096  0.220674159433589  1.0000
  O   O4        1.0  0.018428576642346876  0.6123324776750507  0.6402892659017496  1.0000
  O   O5        1.0  0.017756700467356227  0.8318442514955562  0.4243776510286593  1.0000
  O   O6        1.0  0.01946596366673292  0.4125476605973653  0.4365856655180924  1.0000
  O   O7        1.0  0.8851738637399241  0.8282244199464108  0.42297183905808594  1.0000
  O   O8        1.0  0.8858457328744452  0.608714378797639  0.6388833899593401  1.0000
  O   O9        1.0  0.8862113053049259  0.6284412936725452  0.21926654758882713  1.0000
  O   O10       1.0  0.886883121868924  0.4089295182264994  0.435178161822096  1.0000
