data_image0
_chemical_formula_structural       NC9NC3OCH8C13OH12C12SCH12Zn2C4O8
_chemical_formula_sum              "N2 C43 O10 H32 S1 Zn2"
_cell_length_a       17.728193572023454
_cell_length_b       10.299150109392551
_cell_length_c       10.299780138516091
_cell_angle_alpha    85.5566253413432
_cell_angle_beta     90.6970768647591
_cell_angle_gamma    88.43520969070386

_space_group_name_H-M_alt    "P 1"
_space_group_IT_number       1

loop_
  _space_group_symop_operation_xyz
  'x, y, z'

loop_
  _atom_site_type_symbol
  _atom_site_label
  _atom_site_symmetry_multiplicity
  _atom_site_fract_x
  _atom_site_fract_y
  _atom_site_fract_z
  _atom_site_occupancy
  N   N1        1.0  0.710454825413729  0.38664394616566033  0.5847605411796898  1.0000
  C   C1        1.0  0.6498455666676858  0.34921635992573075  0.5977782348599587  1.0000
  C   C2        1.0  0.5743953680410959  0.3026888807742829  0.6139799032996531  1.0000
  C   C3        1.0  0.5625103356967635  0.17464244977214724  0.6234442457814986  1.0000
  C   C4        1.0  0.48580410650121464  0.12519088010226986  0.6384114675056237  1.0000
  C   C5        1.0  0.4276454629143098  0.20787269048362567  0.6558520253497093  1.0000
  C   C6        1.0  0.349599932581338  0.1628269264023061  0.6776010175928529  1.0000
  C   C7        1.0  0.2882520046628227  0.24829308435137998  0.6421111590659234  1.0000
  C   C8        1.0  0.2139799080783175  0.20899258173287882  0.6622720226677693  1.0000
  C   C9        1.0  0.1516531109513541  0.2969951910980242  0.6247070177694614  1.0000
  N   N2        1.0  0.1015557761824692  0.36774076248705595  0.5945083048483842  1.0000
  C   C10       1.0  0.2004242067592175  0.08410635078503191  0.7189768309426205  1.0000
  C   C11       1.0  0.26087332169970445  0.9989581616297663  0.7558750862369832  1.0000
  C   C12       1.0  0.3350418280120271  0.03776903140302101  0.735843971046674  1.0000
  O   O1        1.0  0.4409873093070563  0.3416695295877726  0.6545103962730325  1.0000
  C   C13       1.0  0.5087092703315206  0.39904139473385686  0.6058830179623725  1.0000
  H   H1        1.0  0.6094452055233478  0.10517513372259658  0.621367144542873  1.0000
  H   H2        1.0  0.4781632004535132  0.02153214314212692  0.6364647775724754  1.0000
  H   H3        1.0  0.29813585994376135  0.3451145795140901  0.5976529392113987  1.0000
  H   H4        1.0  0.143211817807813  0.052819810845194944  0.7351271307551663  1.0000
  H   H5        1.0  0.2502526593157783  0.9027957170389721  0.8007941961520875  1.0000
  H   H6        1.0  0.38057771543220265  0.970541624880649  0.7682860601338933  1.0000
  H   H7        1.0  0.499243896978556  0.43494545497223736  0.5023485830426975  1.0000
  H   H8        1.0  0.5215776330350819  0.4834502111531885  0.6624339061431652  1.0000
  C   C14       1.0  0.9060800421565771  0.9957891443776749  0.5897804071421349  1.0000
  C   C15       1.0  0.9046790728046745  0.9840909828142453  0.7265496691393047  1.0000
  C   C16       1.0  0.90390310931429  0.8610282654887055  0.7956292701674512  1.0000
  C   C17       1.0  0.9045336028129881  0.7488425673487042  0.7261826658682502  1.0000
  C   C18       1.0  0.9059378124430353  0.7585851903028736  0.5894998794665083  1.0000
  C   C19       1.0  0.9067049015807377  0.8825194139229908  0.5220975654537354  1.0000
  C   C20       1.0  0.90241446993398  0.8496349797851662  0.9402253599799448  1.0000
  C   C21       1.0  0.8560051255083045  0.7590168973445163  0.007086812101920526  1.0000
  C   C22       1.0  0.8545793153477388  0.7483784446124264  0.14315096495767288  1.0000
  C   C23       1.0  0.9000320452855938  0.8271774474105171  0.2148257398654113  1.0000
  C   C24       1.0  0.9457193437585613  0.9187842431616082  0.14858883237495313  1.0000
  C   C25       1.0  0.9471626715509752  0.929597646160808  0.012524827427618847  1.0000
  C   C26       1.0  0.8969131554055074  0.8181766419470966  0.360827282487032  1.0000
  O   O2        1.0  0.8405058115932905  0.9040896666333799  0.39966012118490624  1.0000
  H   H9        1.0  0.9082341539732308  0.22518650546186825  0.3316097961675515  1.0000
  H   H10       1.0  0.9031419647581865  0.07095216718637441  0.7795173982009381  1.0000
  H   H11       1.0  0.9049599612744801  0.6537128275493174  0.7790242779169546  1.0000
  H   H12       1.0  0.9077858750802522  0.8907505023088468  0.416669989206417  1.0000
  H   H13       1.0  0.9064271271624468  0.4348595318017789  0.5369256201128075  1.0000
  H   H14       1.0  0.8199191113870296  0.6977392997956663  0.9540812083821683  1.0000
  H   H15       1.0  0.8178650946147465  0.6788360156995493  0.19260905302809683  1.0000
  H   H16       1.0  0.9804152316906555  0.9816821879444209  0.20230595874462343  1.0000
  H   H17       1.0  0.9839021129262817  0.9995844920697136  0.9638739726016202  1.0000
  H   H18       1.0  0.9524200904605193  0.843333103176967  0.40237881525525854  1.0000
  H   H19       1.0  0.8846462270259821  0.716757758068135  0.39833231447803075  1.0000
  H   H20       1.0  0.8407776257277176  0.8944235949501034  0.4962889509093312  1.0000
  C   C27       1.0  0.9060392804144423  0.3770744112492402  0.20828881002932054  1.0000
  C   C28       1.0  0.834296423544539  0.3225257756410409  0.210016183312878  1.0000
  C   C29       1.0  0.7979138709088587  0.2950012673668836  0.09374375430795334  1.0000
  C   C30       1.0  0.8342345986844569  0.3227542208897813  0.9747106640284482  1.0000
  C   C31       1.0  0.9059785812876585  0.3772999783784049  0.9709914815309184  1.0000
  C   C32       1.0  0.9414791423962195  0.40415541409395694  0.08829365765104313  1.0000
  C   C33       1.0  0.7220149070871327  0.23730846199133326  0.09663394831227134  1.0000
  C   C34       1.0  0.6661168994611366  0.2816745148851858  0.004269146229591186  1.0000
  C   C35       1.0  0.5946973425946155  0.22734314545933335  0.007226328469762453  1.0000
  C   C36       1.0  0.5781340449635423  0.12832589036034503  0.10241248384825186  1.0000
  C   C37       1.0  0.6333605703575662  0.08319329541166853  0.19435518966030996  1.0000
  C   C38       1.0  0.7048268472409287  0.1373489629472855  0.19176164277093966  1.0000
  S   S1        1.0  0.4865239148092965  0.05847656433929415  0.1057575582307606  1.0000
  C   C39       1.0  0.44780259081539353  0.17457250340171093  0.2134799499570177  1.0000
  H   H21       1.0  0.9333876068115343  0.3978118804715381  0.5350879029341045  1.0000
  H   H22       1.0  0.8060973737182304  0.30296473122718126  0.30187029767908324  1.0000
  H   H23       1.0  0.80687322763407  0.30007335724260864  0.8849652190484819  1.0000
  H   H24       1.0  0.9968258781808426  0.4462365723600654  0.08619269528675644  1.0000
  H   H25       1.0  0.9332995952512427  0.39814362447235246  0.6421160216711139  1.0000
  H   H26       1.0  0.6773239722574464  0.3595069399812425  0.9308417540383279  1.0000
  H   H27       1.0  0.5521706345718881  0.26273454801202933  0.935822986799563  1.0000
  H   H28       1.0  0.6209999499540865  0.0061126555672759075  0.2678784427357681  1.0000
  H   H29       1.0  0.7469479126314236  0.09992601354801045  0.2630548039843661  1.0000
  H   H30       1.0  0.4797149463186582  0.1669994876483445  0.30729163101300894  1.0000
  H   H31       1.0  0.38791960237181006  0.1523360742321942  0.23276890488096824  1.0000
  H   H32       1.0  0.45070087020576927  0.2751625073157222  0.1669243137073655  1.0000
  Zn  Zn1       1.0  0.8233181230733214  0.3811854272403219  0.5875810358567787  1.0000
  Zn  Zn2       1.0  0.9886925052492477  0.3731886798892079  0.5916984512489848  1.0000
  C   C40       1.0  0.9059893284571944  0.37208327560442556  0.8268261835915666  1.0000
  C   C41       1.0  0.9060231054327773  0.38229238300477  0.3524534753340907  1.0000
  C   C42       1.0  0.9059612237805112  0.6143991966803999  0.5843778570669549  1.0000
  C   C43       1.0  0.9060511539641906  0.1399749042358096  0.59490187026307  1.0000
  O   O3        1.0  0.9687763941976231  0.3810031917999632  0.40239899373810495  1.0000
  O   O4        1.0  0.9687513694735969  0.3673021406811541  0.7800053147313069  1.0000
  O   O5        1.0  0.9687278284667522  0.5629753527619548  0.584226554139794  1.0000
  O   O6        1.0  0.9687998787794109  0.1853299917101679  0.5981776555510296  1.0000
  O   O7        1.0  0.8432106931089981  0.5690441181496706  0.5811018301428303  1.0000
  O   O8        1.0  0.8432342338269522  0.37337246649216527  0.7768805209180722  1.0000
  O   O9        1.0  0.8432592587338819  0.38707347188678787  0.3992726386141088  1.0000
  O   O10       1.0  0.8432827433065664  0.1914002625362967  0.5950513977937186  1.0000
