data_image0
_chemical_formula_structural       NC8Cl2C7NH8C12H8C6H4Zn2C4O8
_chemical_formula_sum              "N2 C37 Cl2 H20 Zn2 O8"
_cell_length_a       18.42689100911083
_cell_length_b       13.024581838241813
_cell_length_c       10.681121600428288
_cell_angle_alpha    84.14087780974744
_cell_angle_beta     89.93519893352126
_cell_angle_gamma    93.7380331283742

_space_group_name_H-M_alt    "P 1"
_space_group_IT_number       1

loop_
  _space_group_symop_operation_xyz
  'x, y, z'

loop_
  _atom_site_type_symbol
  _atom_site_label
  _atom_site_symmetry_multiplicity
  _atom_site_fract_x
  _atom_site_fract_y
  _atom_site_fract_z
  _atom_site_occupancy
  N   N1        1.0  0.7353224623472329  0.12908113539719968  0.582782203842942  1.0000
  C   C1        1.0  0.6811308150340524  0.07937410342576709  0.5789312258993353  1.0000
  C   C2        1.0  0.6137214051024067  0.017544603688411927  0.5741417346955469  1.0000
  C   C3        1.0  0.5587286403744214  0.05054506813057745  0.49254534635727065  1.0000
  C   C4        1.0  0.4933373221432783  0.9904721286888611  0.48772865775245666  1.0000
  C   C5        1.0  0.481128765482986  0.8969203768481411  0.5660705132138368  1.0000
  C   C6        1.0  0.5379322040700688  0.8634411550978803  0.6456190122848482  1.0000
  C   C7        1.0  0.6033070455338304  0.9237619030299347  0.6501562665612273  1.0000
  C   C8        1.0  0.40968868817323995  0.831824210537371  0.5552763656321156  1.0000
  Cl  Cl1       1.0  0.41688432843199297  0.7695442307655814  0.4140135043862221  1.0000
  Cl  Cl2       1.0  0.3949787992901087  0.730830138981796  0.681639332130985  1.0000
  C   C9        1.0  0.344304054225461  0.8983064256179437  0.5564899636519958  1.0000
  C   C10       1.0  0.28550473271172705  0.8884147319125537  0.47298331277925887  1.0000
  C   C11       1.0  0.2256692639330208  0.9484593516025365  0.47943057711316084  1.0000
  C   C12       1.0  0.222775559219115  0.01809222360585804  0.5703584609497223  1.0000
  C   C13       1.0  0.27969394857094  0.02693290961803219  0.6557733007405875  1.0000
  C   C14       1.0  0.33956458474125145  0.9670500365011048  0.649642961302155  1.0000
  C   C15       1.0  0.16104580822642775  0.07967790216573634  0.5768322196787672  1.0000
  N   N2        1.0  0.11142026286652812  0.12918906310250322  0.5820364250437646  1.0000
  H   H1        1.0  0.5664783795781059  0.12251345508536149  0.432160432465593  1.0000
  H   H2        1.0  0.4519713713438645  0.017087372816185113  0.4225021954986268  1.0000
  H   H3        1.0  0.5327735308539439  0.7906667672909322  0.7042986619480673  1.0000
  H   H4        1.0  0.6459428922808877  0.8968691435923377  0.712599508520384  1.0000
  H   H5        1.0  0.2848234936815215  0.8342927426216123  0.4027229684819045  1.0000
  H   H6        1.0  0.18141089492326823  0.9400976422145844  0.41377041295186845  1.0000
  H   H7        1.0  0.27768858697495835  0.07978323306154245  0.727548986898132  1.0000
  H   H8        1.0  0.38249123412801517  0.974346259360187  0.717964040683954  1.0000
  C   C16       1.0  0.909428186473391  0.8262251921511854  0.5916832890000159  1.0000
  C   C17       1.0  0.8771898725819114  0.7637130837224073  0.5044003446402952  1.0000
  C   C18       1.0  0.9011851764613111  0.6654277088615006  0.4931815303780199  1.0000
  C   C19       1.0  0.9574187247143866  0.6276138421089088  0.5695979229539874  1.0000
  C   C20       1.0  0.9901945922304264  0.6901646394035063  0.6558363950916868  1.0000
  C   C21       1.0  0.9662520121598729  0.7884813507323395  0.667136480752978  1.0000
  C   C22       1.0  0.983668607671036  0.5241872845457173  0.5563364327962224  1.0000
  C   C23       1.0  0.05661504805134541  0.5185409428555718  0.5203978129909668  1.0000
  C   C24       1.0  0.08334248877490902  0.42412390670779093  0.49868766107284723  1.0000
  C   C25       1.0  0.03765059076770294  0.3341101072947263  0.5122642334144609  1.0000
  C   C26       1.0  0.9652581254502625  0.3378804689336961  0.5491265774144591  1.0000
  C   C27       1.0  0.937321131585427  0.4320370726544923  0.5731464359316614  1.0000
  H   H9        1.0  0.8335240023234317  0.7907855052165792  0.44455194027476913  1.0000
  H   H10       1.0  0.8760009034723845  0.6187694707502426  0.42476221013994775  1.0000
  H   H11       1.0  0.03404163090926435  0.6625015290785449  0.7149056493253776  1.0000
  H   H12       1.0  0.9923093240050948  0.8348696612140871  0.7349347662783754  1.0000
  H   H13       1.0  0.09264913378568179  0.5879594892073176  0.506942910858581  1.0000
  H   H14       1.0  0.13949215863916326  0.4208957632825217  0.47033311520343846  1.0000
  H   H15       1.0  0.05848277402789059  0.2609969399637295  0.4949790364212301  1.0000
  H   H16       1.0  0.7593796374419294  0.3469299184471784  0.6254476553393391  1.0000
  C   C28       1.0  0.9233746674712389  0.12913111618721773  0.2146696207843322  1.0000
  C   C29       1.0  0.8687899989178145  0.07174769397694036  0.1551055132020207  1.0000
  C   C30       1.0  0.8687899566534436  0.07174776010493944  0.024223371315161838  1.0000
  C   C31       1.0  0.9233746127490005  0.12913116673510247  0.9501600550266152  1.0000
  C   C32       1.0  0.9779142199004085  0.18646703532292158  0.009725121960188156  1.0000
  C   C33       1.0  0.9779142098790921  0.1864670193253335  0.14061742113106424  1.0000
  H   H17       1.0  0.8260039586981094  0.026767855587385373  0.20959903440117753  1.0000
  H   H18       1.0  0.8260039457772873  0.026767904137725573  0.9810950037200028  1.0000
  H   H19       1.0  0.02070584989362544  0.2314528008832769  0.9552757442707973  1.0000
  H   H20       1.0  0.020705811664654124  0.23145276471275747  0.18370011293414468  1.0000
  Zn  Zn1       1.0  0.8438560391041295  0.12910952058347314  0.5825743058004378  1.0000
  Zn  Zn2       1.0  0.002886293723397548  0.12915224122286048  0.582254843912916  1.0000
  C   C34       1.0  0.9231838212284622  0.12502184010866338  0.8112623719254995  1.0000
  C   C35       1.0  0.923560308128757  0.1332412236706213  0.353566857388262  1.0000
  C   C36       1.0  0.9320450247812306  0.31752572641666466  0.5716599816732408  1.0000
  C   C37       1.0  0.9146989932498636  0.9407360980464557  0.5931693524354023  1.0000
  O   O1        1.0  0.9839735564681736  0.13463232541970527  0.400060942409833  1.0000
  O   O2        1.0  0.9834708206070567  0.12366238417214381  0.7645254860426463  1.0000
  O   O3        1.0  0.9906255409786693  0.2791117066912746  0.5710448295033652  1.0000
  O   O4        1.0  0.9768187821700545  0.9791830102649379  0.5935415049361994  1.0000
  O   O5        1.0  0.869923496388303  0.2790787515279403  0.5712876448795499  1.0000
  O   O6        1.0  0.862768833073646  0.12363066831151691  0.7647681967263453  1.0000
  O   O7        1.0  0.8632715673280832  0.13460057361357797  0.4003021485707261  1.0000
  O   O8        1.0  0.8561167926873012  0.9791512510809911  0.5937828052124023  1.0000
