data_image0
_chemical_formula_structural       NC8OC5NC2H8C7ClCClC6H10C14H9Zn2C4O8
_chemical_formula_sum              "N2 C47 O9 H27 Cl2 Zn2"
_cell_length_a       19.09086724204606
_cell_length_b       17.25489619101054
_cell_length_c       17.567810646574827
_cell_angle_alpha    84.79805308434383
_cell_angle_beta     89.97676706631344
_cell_angle_gamma    90.39119030819461

_space_group_name_H-M_alt    "P 1"
_space_group_IT_number       1

loop_
  _space_group_symop_operation_xyz
  'x, y, z'

loop_
  _atom_site_type_symbol
  _atom_site_label
  _atom_site_symmetry_multiplicity
  _atom_site_fract_x
  _atom_site_fract_y
  _atom_site_fract_z
  _atom_site_occupancy
  N   N1        1.0  0.6651473128617498  0.8492711868696674  0.1489381429537612  1.0000
  C   C1        1.0  0.6114459530741363  0.8236943196921168  0.16935097990550707  1.0000
  C   C2        1.0  0.5446476356271357  0.7918805505236637  0.19474183021986757  1.0000
  C   C3        1.0  0.48723412468686933  0.7962603057311927  0.1450605491673801  1.0000
  C   C4        1.0  0.4223415451256581  0.7653416088172525  0.16965502409993208  1.0000
  C   C5        1.0  0.4139569613259726  0.730169618479401  0.24457690654121322  1.0000
  C   C6        1.0  0.4721556310071375  0.7251596327701735  0.29374842032116966  1.0000
  C   C7        1.0  0.5370116383429169  0.7561295033427073  0.26905839698530165  1.0000
  C   C8        1.0  0.34566309582550053  0.6961790293975288  0.27106724905005564  1.0000
  O   O1        1.0  0.3452786169315538  0.6367273961960574  0.3184960037604493  1.0000
  C   C9        1.0  0.27780504943146844  0.7295609930270928  0.2438096150289798  1.0000
  C   C10       1.0  0.27016979029846283  0.8102606060865425  0.22629238556226605  1.0000
  C   C11       1.0  0.2056767562665938  0.841109581513785  0.20160997706848405  1.0000
  C   C12       1.0  0.1479165004589151  0.7918582677951671  0.1947140235297683  1.0000
  C   C13       1.0  0.08152977862445142  0.8236821719067875  0.16933595650060598  1.0000
  N   N2        1.0  0.028159463047309204  0.8492669761192426  0.14893292100429656  1.0000
  C   C14       1.0  0.1548021718917801  0.7116164505947327  0.21293351044509973  1.0000
  C   C15       1.0  0.21925767057976317  0.6806630712628775  0.23764425993737323  1.0000
  H   H1        1.0  0.4926895899045086  0.8232552278611238  0.08721546693266358  1.0000
  H   H2        1.0  0.3789798125494364  0.7681629337409531  0.12982089253845952  1.0000
  H   H3        1.0  0.46728981970351363  0.6978642231755409  0.35151901977979294  1.0000
  H   H4        1.0  0.5811695236201998  0.7521557277231408  0.3079069610016555  1.0000
  H   H5        1.0  0.31380408871265447  0.8495946015315547  0.23249630824314615  1.0000
  H   H6        1.0  0.20079871005901004  0.9033793762372817  0.1882421918742413  1.0000
  H   H7        1.0  0.11036880748916562  0.6729805997110532  0.20807761675617886  1.0000
  H   H8        1.0  0.2235441844496916  0.6183979966212477  0.25132265464563597  1.0000
  C   C16       1.0  0.8452407953265617  0.6213617505876025  0.15195093418249694  1.0000
  C   C17       1.0  0.8770792040080854  0.5784171307737944  0.21430800156456353  1.0000
  C   C18       1.0  0.8736339439471185  0.4971294531102553  0.2215869995041549  1.0000
  C   C19       1.0  0.8389643977791071  0.4573519071987879  0.16638449093712793  1.0000
  C   C20       1.0  0.8062835201522526  0.5000292460508294  0.1046447057788189  1.0000
  C   C21       1.0  0.8096718530738042  0.5813134396243563  0.09728574819819413  1.0000
  C   C22       1.0  0.8343863452144908  0.37150950919782927  0.17567865578287856  1.0000
  Cl  Cl1       1.0  0.7929482870018448  0.32967606245663167  0.25954364070243374  1.0000
  C   C23       1.0  0.8589636780286365  0.3270211536608129  0.12226436535585095  1.0000
  Cl  Cl2       1.0  0.9004017883209268  0.36885454801410367  0.03839932301675486  1.0000
  C   C24       1.0  0.8543847360383591  0.24117888016974964  0.13155784454014363  1.0000
  C   C25       1.0  0.8870657170303996  0.1985011727201041  0.19329545508445456  1.0000
  C   C26       1.0  0.8836711763167606  0.117220229983997  0.20064121808838842  1.0000
  C   C27       1.0  0.8480726497073041  0.07717043809612088  0.14592678986536944  1.0000
  C   C28       1.0  0.816261172586438  0.1201112358599958  0.08362105611096593  1.0000
  C   C29       1.0  0.8197133593111748  0.2014017182568422  0.07635436554210939  1.0000
  H   H9        1.0  0.8190623920829887  0.8083377571540145  0.07606702148675615  1.0000
  H   H10       1.0  0.9045954883638428  0.6075921555731977  0.2575517508948558  1.0000
  H   H11       1.0  0.8984537740856537  0.46515729112230814  0.27008718000399246  1.0000
  H   H12       1.0  0.7777904515813298  0.47036733660843144  0.06242757006904099  1.0000
  H   H13       1.0  0.7841952114016488  0.6127200409811194  0.048931798202244914  1.0000
  H   H14       1.0  0.9155602163976613  0.22815748075133807  0.23551536719669897  1.0000
  H   H15       1.0  0.9091421137007153  0.0857802993723936  0.24898924004165104  1.0000
  H   H16       1.0  0.7887409121676089  0.09097004564688609  0.04036608194639402  1.0000
  H   H17       1.0  0.7948943482058286  0.23337942376514964  0.027856783630995197  1.0000
  H   H18       1.0  0.8061605915839545  0.8931120810803914  0.10346834359536894  1.0000
  C   C30       1.0  0.8467366347528237  0.8492430512087588  0.9253540545272395  1.0000
  C   C31       1.0  0.800238560522705  0.8968644731557588  0.8804800156633614  1.0000
  C   C32       1.0  0.80035548779538  0.8968729831106949  0.800880403010205  1.0000
  C   C33       1.0  0.8468695442662985  0.8493202098427394  0.7651616112320743  1.0000
  C   C34       1.0  0.8933493281198749  0.8017353993938865  0.8093327009528435  1.0000
  C   C35       1.0  0.8933509940432298  0.8016515911101276  0.8889371784778335  1.0000
  C   C36       1.0  0.8468533496351003  0.8492993834233138  0.6832478553245347  1.0000
  C   C37       1.0  0.8468044323153644  0.8492788170839827  0.6146258212233704  1.0000
  C   C38       1.0  0.8467164521673685  0.8492626447831195  0.5327119117369716  1.0000
  C   C39       1.0  0.9088457723527696  0.8358111386481467  0.49386052560500526  1.0000
  C   C40       1.0  0.908832328368077  0.8358287916904247  0.41425871862555796  1.0000
  C   C41       1.0  0.8465767690688732  0.8492891562859912  0.37252368460962226  1.0000
  C   C42       1.0  0.784347969211847  0.8627350186733558  0.41207787010484803  1.0000
  C   C43       1.0  0.7845013080341356  0.8627062992006251  0.49167660227014204  1.0000
  H   H19       1.0  0.7637570815384265  0.9341228525013592  0.9067905277021766  1.0000
  H   H20       1.0  0.7641794897020036  0.9339522362057564  0.7672123321480053  1.0000
  H   H21       1.0  0.9295505731233613  0.764680756722335  0.7822574340273496  1.0000
  H   H22       1.0  0.929798165693664  0.7643484248915772  0.9219070696264267  1.0000
  H   H23       1.0  0.9572936633178301  0.8253372833055942  0.5250831123830118  1.0000
  H   H24       1.0  0.9575499531298487  0.8253230769880665  0.38548721138518405  1.0000
  H   H25       1.0  0.7355824855658255  0.8732466725130973  0.3815721665638656  1.0000
  H   H26       1.0  0.7361231115852539  0.873142911791651  0.521196099076757  1.0000
  H   H27       1.0  0.9092695860321411  0.8360057118162031  0.19199202882575617  1.0000
  Zn  Zn1       1.0  0.7699047639180945  0.8492678979837078  0.14894106504717153  1.0000
  Zn  Zn2       1.0  0.9234019588824549  0.8492639273393943  0.1489363359537217  1.0000
  C   C44       1.0  0.8465862373401423  0.8461886266338248  0.2880399172878544  1.0000
  C   C45       1.0  0.8467221677021263  0.8523441778981324  0.00983754544901383  1.0000
  C   C46       1.0  0.8475348372466694  0.9910125888830759  0.14403145587946475  1.0000
  C   C47       1.0  0.8457735096101646  0.7075192832124112  0.1538460597749579  1.0000
  O   O2        1.0  0.9049686769237197  0.853380051639495  0.03818922685101567  1.0000
  O   O3        1.0  0.9048405438540214  0.8451491537572845  0.2596844351769355  1.0000
  O   O4        1.0  0.9056057647357028  0.9620963349244591  0.14339657306481557  1.0000
  O   O5        1.0  0.9042034037187419  0.7364328760196582  0.1544770318036132  1.0000
  O   O6        1.0  0.7891032667007545  0.9620989493056433  0.14340036919487775  1.0000
  O   O7        1.0  0.7883380516234555  0.8451527005771381  0.2596881783870414  1.0000
  O   O8        1.0  0.7884661848989188  0.8533835713198689  0.03819205501754952  1.0000
  O   O9        1.0  0.7877009116361852  0.7364363901548936  0.15447991712726752  1.0000
