data_image0
_chemical_formula_structural       NC9NC3SH6C7NC2NH8C7NC2NH8Zn2C4O8
_chemical_formula_sum              "N6 C34 S1 H22 Zn2 O8"
_cell_length_a       16.77567553997237
_cell_length_b       9.273995741505848
_cell_length_c       9.27399911348925
_cell_angle_alpha    85.20991922917831
_cell_angle_beta     90.06803896743476
_cell_angle_gamma    91.47570659476311

_space_group_name_H-M_alt    "P 1"
_space_group_IT_number       1

loop_
  _space_group_symop_operation_xyz
  'x, y, z'

loop_
  _atom_site_type_symbol
  _atom_site_label
  _atom_site_symmetry_multiplicity
  _atom_site_fract_x
  _atom_site_fract_y
  _atom_site_fract_z
  _atom_site_occupancy
  N   N1        1.0  0.7649146504083041  0.6130059446349055  0.419948509415063  1.0000
  C   C1        1.0  0.7103229149103272  0.6673860215491637  0.4663284399202919  1.0000
  C   C2        1.0  0.6425737629796188  0.7348681058068139  0.5238823866694695  1.0000
  C   C3        1.0  0.644913649450385  0.8317787081699589  0.6297854659386086  1.0000
  C   C4        1.0  0.5694337928458731  0.8797545458105526  0.6649366681925277  1.0000
  C   C5        1.0  0.5073491804230671  0.8204159667948565  0.586296990949052  1.0000
  C   C6        1.0  0.42098217101915314  0.8492583316410397  0.5984346200645048  1.0000
  C   C7        1.0  0.36387951362101717  0.7614327256867137  0.5334185836300767  1.0000
  C   C8        1.0  0.2823534650542879  0.7880525143156587  0.5443759078589425  1.0000
  C   C9        1.0  0.2245717120123338  0.6972766930943477  0.47780115506778276  1.0000
  N   N2        1.0  0.17813224764199928  0.6243059387269887  0.4242848891553489  1.0000
  C   C10       1.0  0.2571027980178909  0.9028476900696075  0.6201711481555636  1.0000
  C   C11       1.0  0.31311648162802364  0.9908541412083471  0.6846746591000423  1.0000
  C   C12       1.0  0.39448607602441477  0.9646349226169328  0.6740458250855619  1.0000
  S   S1        1.0  0.5476632401843937  0.7080174732941431  0.4736213850971953  1.0000
  H   H1        1.0  0.6993492687235452  0.8667200099345235  0.6807461924139093  1.0000
  H   H2        1.0  0.5613260613368823  0.9544527957975775  0.7468069454229833  1.0000
  H   H3        1.0  0.3823588071472778  0.6716510538872886  0.4748854873313176  1.0000
  H   H4        1.0  0.1942110039475007  0.9243804321127538  0.6292182228536112  1.0000
  H   H5        1.0  0.2934538646794188  0.07995972238453097  0.7428530894252381  1.0000
  H   H6        1.0  0.4361680830690047  0.03599129378562169  0.723983017302364  1.0000
  C   C13       1.0  0.9691461480534401  0.1951111250124169  0.4210374171757214  1.0000
  C   C14       1.0  0.9835774738810953  0.27987676672398026  0.2906636227862305  1.0000
  C   C15       1.0  0.005125488863830795  0.21643930243327134  0.16577806819458774  1.0000
  C   C16       1.0  0.013135589843516371  0.06619628112918785  0.16770194703079633  1.0000
  C   C17       1.0  0.9970339251325601  0.980117759596957  0.29686257848487063  1.0000
  C   C18       1.0  0.9739082771833717  0.04218973242502464  0.42320852065140413  1.0000
  C   C19       1.0  0.03694968681981181  0.001016190325717315  0.03382976716765153  1.0000
  N   N3        1.0  0.04028810615192202  0.07653222079484955  0.9027154402061127  1.0000
  C   C20       1.0  0.06450466687437317  0.9800961407747886  0.8121958729656785  1.0000
  C   C21       1.0  0.075628177236573  0.8488197561343233  0.8889333885791243  1.0000
  N   N4        1.0  0.05833319740613252  0.8621324220850533  0.028301849778241465  1.0000
  H   H7        1.0  0.9037983347652317  0.4561199093838199  0.6280737324529493  1.0000
  H   H8        1.0  0.9801235221831069  0.3966666620829733  0.285972308770577  1.0000
  H   H9        1.0  0.016703131052783204  0.2858082423446102  0.06785346511509993  1.0000
  H   H10       1.0  0.9997272220711199  0.8636119203427125  0.2988909993675351  1.0000
  H   H11       1.0  0.9741574543633446  0.7420791317015706  0.663227383449122  1.0000
  H   H12       1.0  0.07370691742570568  0.004369833011253596  0.6972203405303667  1.0000
  H   H13       1.0  0.09535242117366785  0.75061962604139  0.8463543282654706  1.0000
  H   H14       1.0  0.06238744439142341  0.7809690872634559  0.11271070914463288  1.0000
  C   C22       1.0  0.9729250209725985  0.6223794542342154  0.9982955083626077  1.0000
  C   C23       1.0  0.03512643121077308  0.5550274173840526  0.07725985300235583  1.0000
  C   C24       1.0  0.09199219351624066  0.47726291465642107  0.009005797875415892  1.0000
  C   C25       1.0  0.0881815085499198  0.4641535104943894  0.8596368418139733  1.0000
  C   C26       1.0  0.027193789273148413  0.5339740673234075  0.7791326891808232  1.0000
  C   C27       1.0  0.970129402355474  0.6149214593692722  0.8459504147773629  1.0000
  C   C28       1.0  0.14888759883686675  0.3795661282898062  0.7893623524764828  1.0000
  N   N5        1.0  0.2153734371317373  0.3309973063828415  0.8579726984404963  1.0000
  C   C29       1.0  0.2535661050906082  0.25988558559173836  0.7588697914205111  1.0000
  C   C30       1.0  0.21005351654802218  0.26588265610309264  0.6328890805978236  1.0000
  N   N6        1.0  0.14421785858998692  0.34108534080733177  0.6522240972789648  1.0000
  H   H15       1.0  0.8890741912425442  0.802108019386111  0.26444860325195196  1.0000
  H   H16       1.0  0.03876240057147928  0.5594182622968966  0.19345990952136854  1.0000
  H   H17       1.0  0.13845233736972706  0.42540833723771265  0.07408803875072459  1.0000
  H   H18       1.0  0.025199558035961408  0.5300175801540223  0.6629969927562258  1.0000
  H   H19       1.0  0.8461824593224088  0.6929230300523076  0.559091380484123  1.0000
  H   H20       1.0  0.3096609408179487  0.20653339023840478  0.7776894486158867  1.0000
  H   H21       1.0  0.22508731228216242  0.21814076715153982  0.534233575099318  1.0000
  H   H22       1.0  0.09923333373919131  0.36171349639931494  0.5761013580587298  1.0000
  Zn  Zn1       1.0  0.8841602766868469  0.6162629546234681  0.42120822847489103  1.0000
  Zn  Zn2       1.0  0.05888651116182442  0.6210370584643035  0.42303699242159687  1.0000
  C   C31       1.0  0.9706237525278206  0.6105852874571582  0.6857107759749455  1.0000
  C   C32       1.0  0.9724249530895025  0.6267165963534342  0.1585346112135213  1.0000
  C   C33       1.0  0.9730229964903816  0.8821243769511289  0.41704678207241863  1.0000
  C   C34       1.0  0.9700256395094903  0.35517577169542824  0.4271986769976668  1.0000
  O   O1        1.0  0.038564785755261344  0.629977636074813  0.21300630819192626  1.0000
  O   O2        1.0  0.03709708419199931  0.6109465976702069  0.6326266502615006  1.0000
  O   O3        1.0  0.039033605225426975  0.8302178088899199  0.41567856883104165  1.0000
  O   O4        1.0  0.03662820551451107  0.41070643449578137  0.4299542808092136  1.0000
  O   O5        1.0  0.9064185227087054  0.8265935769644603  0.4142909394556194  1.0000
  O   O6        1.0  0.904482011667274  0.607324099281251  0.6312389483728051  1.0000
  O   O7        1.0  0.9059497187239186  0.62635510269371  0.21161687094043224  1.0000
  O   O8        1.0  0.9040131380650358  0.40708388984646615  0.4285649517392369  1.0000
