data_image0
_chemical_formula_structural       NC9NC3OH6C6NCOC6H11C7OC3NC3H11Zn2C4O8
_chemical_formula_sum              "N4 C42 O11 H28 Zn2"
_cell_length_a       15.78231758774541
_cell_length_b       10.29965916528486
_cell_length_c       10.298749378158432
_cell_angle_alpha    85.57464278776025
_cell_angle_beta     90.0928215232676
_cell_angle_gamma    89.64856781770791

_space_group_name_H-M_alt    "P 1"
_space_group_IT_number       1

loop_
  _space_group_symop_operation_xyz
  'x, y, z'

loop_
  _atom_site_type_symbol
  _atom_site_label
  _atom_site_symmetry_multiplicity
  _atom_site_fract_x
  _atom_site_fract_y
  _atom_site_fract_z
  _atom_site_occupancy
  N   N1        1.0  0.7979879996883547  0.4133446239875236  0.5702472029883333  1.0000
  C   C1        1.0  0.7494433556615909  0.3312812486302792  0.5943027219778616  1.0000
  C   C2        1.0  0.6891733804564152  0.22942065247950547  0.6241618186595415  1.0000
  C   C3        1.0  0.7088163047033333  0.10146733505607708  0.6615902395249946  1.0000
  C   C4        1.0  0.6320762030468814  0.039456143031571626  0.6798040747621783  1.0000
  C   C5        1.0  0.5703101075610234  0.13415623897832574  0.652144043352731  1.0000
  C   C6        1.0  0.4772164444017183  0.11664763176525364  0.6573497342528136  1.0000
  C   C7        1.0  0.42348782785746414  0.22400207266491878  0.6258285761697784  1.0000
  C   C8        1.0  0.3352791438981408  0.20964543397583046  0.6301042791969325  1.0000
  C   C9        1.0  0.2808545087478241  0.3201234086372924  0.597657749554805  1.0000
  N   N2        1.0  0.23710999452876  0.4089334467638625  0.571573638246049  1.0000
  C   C10       1.0  0.3001177649357948  0.08777457221098817  0.6659500871884145  1.0000
  C   C11       1.0  0.35291548354368496  0.9806420832759194  0.6974104336202387  1.0000
  C   C12       1.0  0.44093844473231714  0.9946043221660807  0.6932509190133482  1.0000
  O   O1        1.0  0.6067857721703921  0.24638816970277053  0.6192658435576006  1.0000
  H   H1        1.0  0.771270074987023  0.058316889944988626  0.6741615918658312  1.0000
  H   H2        1.0  0.6233283899397947  0.9374934850191422  0.7096450272906765  1.0000
  H   H3        1.0  0.45010785248151636  0.31883921294746775  0.5979294595831387  1.0000
  H   H4        1.0  0.23199961209605532  0.07561524546299704  0.6695692627027356  1.0000
  H   H5        1.0  0.325565242776825  0.8864532988710413  0.7251192409975153  1.0000
  H   H6        1.0  0.48001184862728424  0.909747845686362  0.7181779795151332  1.0000
  C   C13       1.0  0.017478497794706876  0.029779073546483785  0.5707947129631052  1.0000
  C   C14       1.0  0.018040498423527382  0.03906532773404537  0.43397089223073393  1.0000
  C   C15       1.0  0.01957307069298331  0.9268948828842022  0.36513513379375007  1.0000
  C   C16       1.0  0.01820017383276239  0.803873407193996  0.43426777948511014  1.0000
  C   C17       1.0  0.017627566535521222  0.7924889054997789  0.5710373408003504  1.0000
  C   C18       1.0  0.017568118073100884  0.906046633340314  0.6385297259543293  1.0000
  N   N3        1.0  0.018845946042311386  0.9399861984632906  0.2250570546156918  1.0000
  C   C19       1.0  0.05855565710458264  0.8484648202930176  0.1454453415221113  1.0000
  O   O2        1.0  0.11701238917634373  0.7750551792687378  0.19260322768601168  1.0000
  C   C20       1.0  0.033913139378249024  0.8425268654047982  0.0069950513328009825  1.0000
  C   C21       1.0  0.9555588055914662  0.8931749898082911  0.9604093831514845  1.0000
  C   C22       1.0  0.9328406186443124  0.8864003333766929  0.8298090594471637  1.0000
  C   C23       1.0  0.9876873847620861  0.8287692718672339  0.7445121771182731  1.0000
  C   C24       1.0  0.06529568938091929  0.7773412312204739  0.7897192770767041  1.0000
  C   C25       1.0  0.08833733460533084  0.7837563142665437  0.9202160959944141  1.0000
  H   H7        1.0  0.015609649975000911  0.21953419562770543  0.8288858556664163  1.0000
  H   H8        1.0  0.017937549855640892  0.1336799969573328  0.3801438646343718  1.0000
  H   H9        1.0  0.016090583611812582  0.7171082497406912  0.38145242165197324  1.0000
  H   H10       1.0  0.01714620885239393  0.8980224774800077  0.7440054858773688  1.0000
  H   H11       1.0  0.016280645125543714  0.46068405295087517  0.6234983848285787  1.0000
  H   H12       1.0  0.9946650826200557  0.026365746619704256  0.17904041626770728  1.0000
  H   H13       1.0  0.9111642428341798  0.9363125678036248  0.024762084999285335  1.0000
  H   H14       1.0  0.8724514265749693  0.9254430923963837  0.7948385063292283  1.0000
  H   H15       1.0  0.9699328961494995  0.8235984706584009  0.6434940940367375  1.0000
  H   H16       1.0  0.10768529073704708  0.7324281621654346  0.7235966782259942  1.0000
  H   H17       1.0  0.1489384828744822  0.7435254854389153  0.9529684283125133  1.0000
  C   C26       1.0  0.017513965593731737  0.4111624030945624  0.18951487278538146  1.0000
  C   C27       1.0  0.06381963589242762  0.5275593280633195  0.17967217180680373  1.0000
  C   C28       1.0  0.08638457528842469  0.5872270815774878  0.057454024829782784  1.0000
  C   C29       1.0  0.06382301291642678  0.5276081544484266  0.9444281681027301  1.0000
  C   C30       1.0  0.017592088144735347  0.41110558726346524  0.9523172007199605  1.0000
  C   C31       1.0  0.9945363309087661  0.35380453942484213  0.07528333097894246  1.0000
  C   C32       1.0  0.13597000614459653  0.7094941243444606  0.04696265403888389  1.0000
  O   O3        1.0  0.18891749429140703  0.7273046251752591  0.9557814992799208  1.0000
  C   C33       1.0  0.12549118653860564  0.8115478704301844  0.13985306266695874  1.0000
  C   C34       1.0  0.046226557500003145  0.834917608971038  0.19632507081072512  1.0000
  C   C35       1.0  0.03676770250945638  0.9325124259972764  0.28302773557192173  1.0000
  N   N4        1.0  0.9561014016285889  0.9551738849273438  0.34046316590117875  1.0000
  C   C36       1.0  0.10670003657208688  0.008059292317295965  0.3126608625114766  1.0000
  C   C37       1.0  0.18529734847035517  0.9866468638458816  0.2557281239668878  1.0000
  C   C38       1.0  0.194707434998465  0.8893642001045862  0.1694022155010826  1.0000
  H   H18       1.0  0.9311417922663469  0.19020457923051692  0.4155562184112087  1.0000
  H   H19       1.0  0.08317875125069579  0.5712096626725778  0.2672907222099883  1.0000
  H   H20       1.0  0.08170146122001376  0.5729494789962482  0.8500903148927169  1.0000
  H   H21       1.0  0.9588470484666846  0.2640810805887357  0.08211849858125575  1.0000
  H   H22       1.0  0.9305455818845678  0.19073351265757663  0.7599400793234605  1.0000
  H   H23       1.0  0.9915446320051712  0.7784609914530961  0.17209879768102374  1.0000
  H   H24       1.0  0.9035493204474087  0.8994310321327051  0.3190585530241792  1.0000
  H   H25       1.0  0.948352168532809  0.027768452335545035  0.4049505099074928  1.0000
  H   H26       1.0  0.10020404920321585  0.08373715819058791  0.37939831724396206  1.0000
  H   H27       1.0  0.2390745687036666  0.0455723292819017  0.2785458014435498  1.0000
  H   H28       1.0  0.2562599295095016  0.8741015203843862  0.12658302918297282  1.0000
  Zn  Zn1       1.0  0.9247091182867245  0.4120681840744731  0.5706374765477378  1.0000
  Zn  Zn2       1.0  0.11038884645368993  0.41019928666587746  0.5711939785314757  1.0000
  C   C39       1.0  0.017574438077708532  0.405942807980779  0.8081295780143711  1.0000
  C   C40       1.0  0.017525554612907397  0.4163262809227339  0.33370201114036036  1.0000
  C   C41       1.0  0.01759450874554092  0.648320969191847  0.5658158752278115  1.0000
  C   C42       1.0  0.01750542028768032  0.17394656007843665  0.5760157824851224  1.0000
  O   O4        1.0  0.0879939320475151  0.4173444230598977  0.3823037197381857  1.0000
  O   O5        1.0  0.0880326777555755  0.40350523628226326  0.7599498673562892  1.0000
  O   O6        1.0  0.08804793531701338  0.5992286762107186  0.5642798355291119  1.0000
  O   O7        1.0  0.08797861111800276  0.22162099306642394  0.5779736539955203  1.0000
  O   O8        1.0  0.9471192902590332  0.600646478313104  0.5638578008869557  1.0000
  O   O9        1.0  0.9471040329916115  0.4049245986570546  0.7595277639591931  1.0000
  O   O10       1.0  0.9470652871710852  0.4187637402954829  0.3818800547941332  1.0000
  O   O11       1.0  0.9470499662462685  0.22304030100620476  0.5775500864245731  1.0000
