data_image0
_chemical_formula_structural       NC9NC3OH6C7OC3OC4H11C7OC6OCH11Zn2C4O8
_chemical_formula_sum              "N2 C44 O13 H28 Zn2"
_cell_length_a       15.78231758774541
_cell_length_b       10.299371110280154
_cell_length_c       10.299362532796529
_cell_angle_alpha    85.59679077391144
_cell_angle_beta     90.09919445181322
_cell_angle_gamma    89.64456115777638

_space_group_name_H-M_alt    "P 1"
_space_group_IT_number       1

loop_
  _space_group_symop_operation_xyz
  'x, y, z'

loop_
  _atom_site_type_symbol
  _atom_site_label
  _atom_site_symmetry_multiplicity
  _atom_site_fract_x
  _atom_site_fract_y
  _atom_site_fract_z
  _atom_site_occupancy
  N   N1        1.0  0.7978220182082023  0.41282916302296174  0.5703721443430718  1.0000
  C   C1        1.0  0.7492828268946066  0.3307727964949485  0.5944256723594135  1.0000
  C   C2        1.0  0.6890196198567443  0.22892090014111277  0.6242822977281386  1.0000
  C   C3        1.0  0.7086710403756618  0.10097848019223467  0.6617076213159134  1.0000
  C   C4        1.0  0.6319350616371525  0.03897259849396262  0.6799199488352188  1.0000
  C   C5        1.0  0.5701626808678634  0.1336646451109964  0.6522622060802639  1.0000
  C   C6        1.0  0.4770701862753379  0.1161575617722068  0.6574674656502895  1.0000
  C   C7        1.0  0.42333443285988487  0.2235028135877779  0.6259489167779044  1.0000
  C   C8        1.0  0.3351267076056006  0.20914742722295432  0.6302242654854506  1.0000
  C   C9        1.0  0.28069472734775064  0.3196159422331645  0.5977804217065457  1.0000
  N   N2        1.0  0.2369443085184827  0.4084183755200268  0.5716984696002481  1.0000
  C   C10       1.0  0.29997343498595486  0.08728702133307831  0.6660671058818257  1.0000
  C   C11       1.0  0.35277827601904765  0.9801637041778523  0.6975248481084713  1.0000
  C   C12       1.0  0.44080030474952214  0.9941247246526266  0.6933656782010142  1.0000
  O   O1        1.0  0.606630889681327  0.24588699844395803  0.619386727339273  1.0000
  H   H1        1.0  0.7711276722975543  0.05783169033151703  0.6742779336834257  1.0000
  H   H2        1.0  0.6231940200677154  0.9370186303115964  0.7097584318651788  1.0000
  H   H3        1.0  0.4499481489767862  0.3183318155099957  0.5980521099279967  1.0000
  H   H4        1.0  0.2318560939688935  0.07512875441345845  0.6696859814953542  1.0000
  H   H5        1.0  0.3254343006611786  0.885983002659933  0.7252313615017565  1.0000
  H   H6        1.0  0.4798793506924454  0.9092755160757902  0.7182906752523561  1.0000
  C   C13       1.0  0.017330061137589944  0.02925287614236693  0.5709203369749964  1.0000
  C   C14       1.0  0.0075439198593758566  0.038598307518945996  0.434908346421287  1.0000
  C   C15       1.0  0.001650984512776122  0.9261346288221187  0.3664729570552945  1.0000
  C   C16       1.0  0.007586031209341644  0.8033300958719564  0.4352195534721545  1.0000
  C   C17       1.0  0.017444359240514448  0.7919846203999615  0.5711615297174311  1.0000
  C   C18       1.0  0.022037495875262044  0.9055457221597101  0.6382623163791117  1.0000
  C   C19       1.0  0.9922011168093625  0.9358657992684781  0.22270021934893336  1.0000
  O   O2        1.0  0.02692335531485644  0.8504593450002336  0.158783409429891  1.0000
  C   C20       1.0  0.943351192831287  0.042404567888339136  0.15144323613481658  1.0000
  C   C21       1.0  0.9670130611131675  0.08728936486832084  0.024374647927141613  1.0000
  C   C22       1.0  0.9211705251841472  0.1867426133330967  0.9548567528535212  1.0000
  O   O3        1.0  0.9482009549139687  0.22824124050551917  0.8288430289295383  1.0000
  C   C23       1.0  0.9077979111497447  0.32810811337536955  0.7472876106654192  1.0000
  C   C24       1.0  0.8501028559206577  0.2413325312781216  0.013129042173980913  1.0000
  C   C25       1.0  0.8255708204501475  0.1961661883408292  0.1386779730484735  1.0000
  C   C26       1.0  0.8715635920131497  0.09699250937853553  0.20744415907523117  1.0000
  H   H7        1.0  0.03709049897887384  0.21894346752398344  0.8273679416652561  1.0000
  H   H8        1.0  0.005436724275063475  0.13353825861103896  0.3818733081956711  1.0000
  H   H9        1.0  0.003681188150348229  0.7164934111133932  0.3824863479708598  1.0000
  H   H10       1.0  0.029582439107973736  0.8975372726240075  0.7431175968333861  1.0000
  H   H11       1.0  0.02193625269423327  0.46017178519117463  0.6232609381018333  1.0000
  H   H12       1.0  0.021789504500763876  0.045829740420239684  0.9791681426158094  1.0000
  H   H13       1.0  0.9090543404419135  0.4215660621481929  0.7943095402236087  1.0000
  H   H14       1.0  0.8413917901110993  0.30053597034631174  0.7273232100166576  1.0000
  H   H15       1.0  0.8132897557856879  0.3181865174358382  0.9621303855533663  1.0000
  H   H16       1.0  0.7704739305466987  0.23779007575188604  0.1826618023349933  1.0000
  H   H17       1.0  0.8504431853410572  0.062084835872276985  0.3037571493293305  1.0000
  C   C27       1.0  0.01732106133729472  0.41049887281463726  0.18967380703527548  1.0000
  C   C28       1.0  0.9368810792936912  0.3526260107923551  0.19269997738864086  1.0000
  C   C29       1.0  0.8959443445778416  0.3247635678708729  0.0770540948343248  1.0000
  C   C30       1.0  0.9371197164408352  0.35278717224951  0.9574464499428713  1.0000
  C   C31       1.0  0.017453362934012565  0.4107385991693302  0.9524080578290665  1.0000
  C   C32       1.0  0.0570209574409426  0.4395163964062814  0.06905893596834689  1.0000
  C   C33       1.0  0.8114324283949026  0.2623145347847715  0.08258166387027366  1.0000
  O   O4        1.0  0.794109233922746  0.18328163965285893  0.17840089497175926  1.0000
  C   C34       1.0  0.7465761571312003  0.28951730742519133  0.9794793481279007  1.0000
  C   C35       1.0  0.7400787871407369  0.4129555952189577  0.9116452802053736  1.0000
  C   C36       1.0  0.6780630474333259  0.4377582115238534  0.8157700177791817  1.0000
  C   C37       1.0  0.6210517024263571  0.3406661921905045  0.7865181759377555  1.0000
  C   C38       1.0  0.6266580202863605  0.2174304098270292  0.8552678297012801  1.0000
  C   C39       1.0  0.6886661477914383  0.1925006703819192  0.9512154339822754  1.0000
  O   O5        1.0  0.5600602743187543  0.3704385196212254  0.6893586180485873  1.0000
  C   C40       1.0  0.49826782909900363  0.2812976030631258  0.6497710220435731  1.0000
  H   H18       1.0  0.16925582252214044  0.5192120622390459  0.39127182228943824  1.0000
  H   H19       1.0  0.9055055004876689  0.33020013927354075  0.28513211205169053  1.0000
  H   H20       1.0  0.9068264353988478  0.32801128654958345  0.8682929613793604  1.0000
  H   H21       1.0  0.11899272767166619  0.48421751892304243  0.06590496618393238  1.0000
  H   H22       1.0  0.048413123917837336  0.4324857297795688  0.6230393352577988  1.0000
  H   H23       1.0  0.7823239628295843  0.49078228070489166  0.9336217897479511  1.0000
  H   H24       1.0  0.6740402163668351  0.5332583667217077  0.7642243730319684  1.0000
  H   H25       1.0  0.5834396537289921  0.14029929060210342  0.8353853730442883  1.0000
  H   H26       1.0  0.6918657192177848  0.09682691540224186  0.0026453426057599892  1.0000
  H   H27       1.0  0.45688790890043435  0.24950011394500016  0.7331855413449859  1.0000
  H   H28       1.0  0.5298407376439614  0.1956601927457482  0.6111836162176645  1.0000
  Zn  Zn1       1.0  0.924543222762955  0.4115528383887049  0.570762385496399  1.0000
  Zn  Zn2       1.0  0.11022307572412998  0.409684103966717  0.5713188413644497  1.0000
  C   C41       1.0  0.01742567805357508  0.40551961082758553  0.8082332972525281  1.0000
  C   C42       1.0  0.017342648319373915  0.4157189497893122  0.3338480636687835  1.0000
  C   C43       1.0  0.017417488413148382  0.6478104932255004  0.5659407640301957  1.0000
  C   C44       1.0  0.017350774378453542  0.17342650774029877  0.576140665446172  1.0000
  O   O6        1.0  0.08781442877886758  0.41675601456356476  0.3824454315535104  1.0000
  O   O7        1.0  0.08788060944062792  0.40306324002161587  0.760057892342078  1.0000
  O   O8        1.0  0.0878730465409634  0.5987162017288172  0.5644049550854147  1.0000
  O   O9        1.0  0.08782192830307922  0.22110306275369895  0.5780982712490217  1.0000
  O   O10       1.0  0.9469443068205838  0.600133880240842  0.5639829554151052  1.0000
  O   O11       1.0  0.946951869938173  0.40448247882385835  0.7596358239199912  1.0000
  O   O12       1.0  0.9468856890551778  0.41817520761827276  0.3820218017239554  1.0000
  O   O13       1.0  0.94689318859142  0.22252224655019015  0.5776747387838974  1.0000
