data_image0
_chemical_formula_structural       NC8Br2C7NH8C12H10C12H9Zn2C4O8
_chemical_formula_sum              "N2 C43 Br2 H27 Zn2 O8"
_cell_length_a       18.47481811020543
_cell_length_b       13.024581838241813
_cell_length_c       13.024585202197207
_cell_angle_alpha    84.12653577963174
_cell_angle_beta     93.98418679014542
_cell_angle_gamma    93.79837390729038

_space_group_name_H-M_alt    "P 1"
_space_group_IT_number       1

loop_
  _space_group_symop_operation_xyz
  'x, y, z'

loop_
  _atom_site_type_symbol
  _atom_site_label
  _atom_site_symmetry_multiplicity
  _atom_site_fract_x
  _atom_site_fract_y
  _atom_site_fract_z
  _atom_site_occupancy
  N   N1        1.0  0.6761142331938772  0.12522325038385726  0.8363712871015397  1.0000
  C   C1        1.0  0.6267684217990496  0.1310758589737153  0.8850995460516982  1.0000
  C   C2        1.0  0.5653867529596682  0.138355328819173  0.9457116307889879  1.0000
  C   C3        1.0  0.5623591786922432  0.0839705268976696  0.0437297728470627  1.0000
  C   C4        1.0  0.5028734324651247  0.09101571236591766  0.10288477141594576  1.0000
  C   C5        1.0  0.4444414460188651  0.15126015273357482  0.06399832033270869  1.0000
  C   C6        1.0  0.4495153269031487  0.20807619178867193  0.9662325009941067  1.0000
  C   C7        1.0  0.5090251250573563  0.20083497642232895  0.9073220880156361  1.0000
  C   C8        1.0  0.37976601847563224  0.1640384770502365  0.1279127602247282  1.0000
  Br  Br1       1.0  0.368227459857944  0.05697781818892511  0.24301269274095497  1.0000
  Br  Br2       1.0  0.4010236624244767  0.2943672651266185  0.1890430585008035  1.0000
  C   C9        1.0  0.3079352567488864  0.15968587571437576  0.06208261194392117  1.0000
  C   C10       1.0  0.252201414809722  0.22639032185389849  0.07210509741327653  1.0000
  C   C11       1.0  0.1862094172154876  0.2178581457367785  0.013288245524144093  1.0000
  C   C12       1.0  0.17400895255739368  0.14151122988685194  0.9449941328965206  1.0000
  C   C13       1.0  0.22778026395457399  0.07282973050405747  0.9364258025964686  1.0000
  C   C14       1.0  0.2937747445750043  0.0811144193272042  0.9950990047267283  1.0000
  C   C15       1.0  0.10595933656539115  0.13282605615900864  0.8847015893103634  1.0000
  N   N2        1.0  0.0512529925047381  0.1258439178807713  0.8362302094121186  1.0000
  H   H1        1.0  0.6062952913867721  0.03655377834847661  0.07486386718102289  1.0000
  H   H2        1.0  0.5036702837859759  0.04958802181041877  0.17909357508948198  1.0000
  H   H3        1.0  0.4071681725300193  0.2583495070384858  0.9353648153948355  1.0000
  H   H4        1.0  0.5112216888624682  0.24445849131146777  0.8320567704336617  1.0000
  H   H5        1.0  0.2585574282044844  0.28494369720761714  0.12558109879637191  1.0000
  H   H6        1.0  0.1444534927781437  0.27049471585689533  0.021673521269005125  1.0000
  H   H7        1.0  0.21858554267851277  0.012451024569913642  0.8848068189701426  1.0000
  H   H8        1.0  0.3340398394242112  0.025856341812180664  0.9882255786595524  1.0000
  C   C16       1.0  0.8501504298651804  0.822636406589859  0.8439038186173706  1.0000
  C   C17       1.0  0.8144570910179392  0.7597804837470753  0.7721415671983768  1.0000
  C   C18       1.0  0.8379388121919304  0.6614894702835843  0.7629529797809458  1.0000
  C   C19       1.0  0.8971280682250677  0.6240149885741034  0.8258161035149036  1.0000
  C   C20       1.0  0.9333153357472175  0.6869067510811243  0.8967207692908301  1.0000
  C   C21       1.0  0.9098894993680876  0.7852294522562737  0.905976204867968  1.0000
  C   C22       1.0  0.9227760793421796  0.5205788688375189  0.8149518437346457  1.0000
  C   C23       1.0  0.9940869794604117  0.5149090925799249  0.7855119841353747  1.0000
  C   C24       1.0  0.01986922863403715  0.42045414406733184  0.7677059202516496  1.0000
  C   C25       1.0  0.9748399781400064  0.3304243510618041  0.77880470386826  1.0000
  C   C26       1.0  0.9041190924247566  0.33422207743892957  0.8090042974926168  1.0000
  C   C27       1.0  0.8772238121203455  0.4284228656064019  0.828706767900033  1.0000
  H   H9        1.0  0.8448028008843291  0.059838752766963245  0.9326643189717867  1.0000
  H   H10       1.0  0.7684754182395945  0.7865876175061834  0.7229083918742507  1.0000
  H   H11       1.0  0.8100460015105868  0.6145618418294836  0.7067001229657739  1.0000
  H   H12       1.0  0.9794461767478351  0.6595065018654016  0.9453139314763267  1.0000
  H   H13       1.0  0.9386280430972177  0.8318862171994906  0.9617198423106905  1.0000
  H   H14       1.0  0.029487196803766633  0.5843308180791051  0.77450106600801  1.0000
  H   H15       1.0  0.07473196885478205  0.41720558920297657  0.744476951164071  1.0000
  H   H16       1.0  0.994920724071024  0.25728038528378167  0.7646273036832656  1.0000
  H   H17       1.0  0.8708032953388744  0.2627230355915969  0.8188118523902426  1.0000
  H   H18       1.0  0.701839790914908  0.34325146579156535  0.8714603566339676  1.0000
  C   C28       1.0  0.8487947754081616  0.12426714019874517  0.534123034866747  1.0000
  C   C29       1.0  0.8364759056910633  0.20666439657486307  0.45763153884612584  1.0000
  C   C30       1.0  0.8611371530592606  0.2051261215511131  0.35878175341456897  1.0000
  C   C31       1.0  0.8980456607462455  0.12091404060164623  0.3344334885330984  1.0000
  C   C32       1.0  0.9110783637987007  0.03910481100202555  0.41083681694540863  1.0000
  C   C33       1.0  0.8864496895331426  0.04055658472195334  0.5097320238863721  1.0000
  C   C34       1.0  0.9252251144116009  0.12000711176655532  0.23024705958603775  1.0000
  C   C35       1.0  0.0005689681453691069  0.11676916921598932  0.22262081345449225  1.0000
  C   C36       1.0  0.029911930434337385  0.12228697456302884  0.1262483249562445  1.0000
  C   C37       1.0  0.9845352201796623  0.13132709114995578  0.036188274227448414  1.0000
  C   C38       1.0  0.9095201919983837  0.1336012453453872  0.04209594900157422  1.0000
  C   C39       1.0  0.8785794233111367  0.1267921340127842  0.1384874963056093  1.0000
  H   H19       1.0  0.8177355688699914  0.04368203199240782  0.7860962462278112  1.0000
  H   H20       1.0  0.8079198244771233  0.27245638754182  0.4741743730115127  1.0000
  H   H21       1.0  0.8515614925546878  0.26967828834047114  0.30116912394688167  1.0000
  H   H22       1.0  0.939961748037656  0.9738462859535102  0.3935991370772849  1.0000
  H   H23       1.0  0.8969659339425435  0.9761154933670921  0.5670234072992022  1.0000
  H   H24       1.0  0.036913330992952124  0.11179654228799761  0.2916801716302495  1.0000
  H   H25       1.0  0.08804748793715467  0.12033718085470224  0.12139655654458248  1.0000
  H   H26       1.0  0.8754787726776063  0.13879931667274095  0.9708441888672983  1.0000
  H   H27       1.0  0.7019815016820036  0.16244579222022157  0.05311817650669992  1.0000
  Zn  Zn1       1.0  0.7843713452404907  0.12539962340787958  0.8363365775627853  1.0000
  Zn  Zn2       1.0  0.9429959054709194  0.12565913424385067  0.8362735275274146  1.0000
  C   C40       1.0  0.8727642520484984  0.12220572223521042  0.02435278206423419  1.0000
  C   C41       1.0  0.8546047939792403  0.12885434012416153  0.6482573906881399  1.0000
  C   C42       1.0  0.8719005396991752  0.3138991875500057  0.8274787068755489  1.0000
  C   C43       1.0  0.8554683995211949  0.9371596357004383  0.8451315518488602  1.0000
  O   O1        1.0  0.9167516821074388  0.13048782939370862  0.6865381088600109  1.0000
  O   O2        1.0  0.931009685438452  0.12076841631632917  0.9860239336736061  1.0000
  O   O3        1.0  0.9303114680382218  0.27556331699551134  0.827046698459208  1.0000
  O   O4        1.0  0.9174498419071616  0.9756929356822567  0.8455152667548301  1.0000
  O   O5        1.0  0.8099173546732547  0.2753658218820152  0.8270948383514454  1.0000
  O   O6        1.0  0.8106156247498593  0.12057216022430238  0.9860719876098822  1.0000
  O   O7        1.0  0.7963575588883952  0.1302915321889113  0.686584926503363  1.0000
  O   O8        1.0  0.7970557221576311  0.9754966314222709  0.845562161733836  1.0000
