data_image0
_chemical_formula_structural       NC9NC3OH6C6SCH6C6NCH7Zn2C4O8
_chemical_formula_sum              "N3 C30 O9 H19 S1 Zn2"
_cell_length_a       15.78231758774541
_cell_length_b       10.302809429070853
_cell_length_c       9.273390368590327
_cell_angle_alpha    86.16778919332907
_cell_angle_beta     90.0787864382203
_cell_angle_gamma    89.63144148246117

_space_group_name_H-M_alt    "P 1"
_space_group_IT_number       1

loop_
  _space_group_symop_operation_xyz
  'x, y, z'

loop_
  _atom_site_type_symbol
  _atom_site_label
  _atom_site_symmetry_multiplicity
  _atom_site_fract_x
  _atom_site_fract_y
  _atom_site_fract_z
  _atom_site_occupancy
  N   N1        1.0  0.7980054783576085  0.39766029100204237  0.4128864024855987  1.0000
  C   C1        1.0  0.7494719318390999  0.3158772802474792  0.43961009061785455  1.0000
  C   C2        1.0  0.6892157312671848  0.2143646884632997  0.47278107220531135  1.0000
  C   C3        1.0  0.7088759749867002  0.08684767160191112  0.5143610412554228  1.0000
  C   C4        1.0  0.6321442517092953  0.025048724966614033  0.5345950591283346  1.0000
  C   C5        1.0  0.5703653293511397  0.11942634990780744  0.5038669362569081  1.0000
  C   C6        1.0  0.47727401883255105  0.1019783437663966  0.5096499391136582  1.0000
  C   C7        1.0  0.42353089532400834  0.2089654589375396  0.4746326072420415  1.0000
  C   C8        1.0  0.3353241390026162  0.19465858823237303  0.47938247791622435  1.0000
  C   C9        1.0  0.28088457649445886  0.30475846146665564  0.443337146684131  1.0000
  N   N2        1.0  0.23712806287008734  0.39326454106184694  0.4143599219345022  1.0000
  C   C10       1.0  0.30017921581665047  0.07320538861659019  0.5192040538498541  1.0000
  C   C11       1.0  0.3529914105009916  0.9664395125579649  0.5541538238967232  1.0000
  C   C12       1.0  0.4410124972682898  0.9803533370721911  0.5495330282343246  1.0000
  O   O1        1.0  0.6068258124709422  0.23127506859803668  0.4673419559050995  1.0000
  H   H1        1.0  0.7713355964641471  0.043843819037092883  0.5283268652704063  1.0000
  H   H2        1.0  0.6234102369108349  0.9234339062027178  0.5677459419634547  1.0000
  H   H3        1.0  0.4501381154061654  0.3034775335299964  0.44363912017403884  1.0000
  H   H4        1.0  0.23206269602211718  0.06108819007131583  0.523224591827476  1.0000
  H   H5        1.0  0.32565388665051226  0.8725735760542569  0.5849358935104192  1.0000
  H   H6        1.0  0.4800973655404468  0.8957873320118731  0.5772248631683832  1.0000
  C   C13       1.0  0.01757083183024788  0.014209025223216772  0.4136294281686449  1.0000
  C   C14       1.0  0.06646259369211238  0.020170554246084604  0.2869732897299331  1.0000
  C   C15       1.0  0.09055701855526194  0.9061585547760296  0.22378917780108942  1.0000
  C   C16       1.0  0.06646248686007294  0.7850193966539725  0.2869732119133341  1.0000
  C   C17       1.0  0.01757079805822868  0.7767058868579887  0.4136294204890069  1.0000
  C   C18       1.0  0.9933419104073764  0.8919254985191774  0.4763111516355105  1.0000
  S   S1        1.0  0.15317977036246833  0.9152659473513105  0.06213616840108949  1.0000
  C   C19       1.0  0.06136988045587421  0.9233451688363068  0.9428832727089227  1.0000
  H   H7        1.0  0.08588187611041853  0.11310528066504032  0.23666350843919123  1.0000
  H   H8        1.0  0.0858816891390492  0.6977548879743147  0.23666339549771198  1.0000
  H   H9        1.0  0.9556156953690161  0.8864210742326476  0.5739918147372269  1.0000
  H   H10       1.0  0.02248440995824795  0.8344630978972493  0.9619718031331179  1.0000
  H   H11       1.0  0.022485203523983976  0.010698046607486411  0.961971281868971  1.0000
  H   H12       1.0  0.08325901658885136  0.9299777658956326  0.8290351686201878  1.0000
  C   C20       1.0  0.017610085311337665  0.3914084634191589  0.9903837583481923  1.0000
  C   C21       1.0  0.09543250755379068  0.3880498165043895  0.06424738438674638  1.0000
  C   C22       1.0  0.17189753082417247  0.3967736964235322  0.9890891803926007  1.0000
  C   C23       1.0  0.17248292752871874  0.4091884961454289  0.8374631550214984  1.0000
  C   C24       1.0  0.09517696452454859  0.4103524775501049  0.7627916602123141  1.0000
  C   C25       1.0  0.017531559395949293  0.3995064587836132  0.8368750286461943  1.0000
  N   N3        1.0  0.2503800612235798  0.4193928976455555  0.7569362733693912  1.0000
  C   C26       1.0  0.3340397087523373  0.4187084599585867  0.8242051984481593  1.0000
  H   H13       1.0  0.8838703692221769  0.33038326807943164  0.275774983873704  1.0000
  H   H14       1.0  0.23027767026929136  0.39499464347659363  0.05040608460765283  1.0000
  H   H15       1.0  0.8200652920875058  0.30061959855720244  0.7407213378494757  1.0000
  H   H16       1.0  0.24763080984028918  0.42802475304901066  0.6440512138463812  1.0000
  H   H17       1.0  0.3395387926002018  0.5019372188090374  0.8936921783026528  1.0000
  H   H18       1.0  0.34437527513454014  0.3258010400256861  0.889793827474497  1.0000
  H   H19       1.0  0.38369556777274694  0.4280262847785039  0.7394812553959298  1.0000
  Zn  Zn1       1.0  0.9247267662614054  0.39638838415451527  0.4133199446657101  1.0000
  Zn  Zn2       1.0  0.11040674538093959  0.3945259643623298  0.4139381618135014  1.0000
  C   C27       1.0  0.017544494823039426  0.3928036518536233  0.676870054331632  1.0000
  C   C28       1.0  0.017591044425694143  0.3981123158022757  0.15038820036143785  1.0000
  C   C29       1.0  0.017566971651137957  0.6325228367502902  0.4078859265106204  1.0000
  C   C30       1.0  0.017568504230947024  0.15839157244620017  0.41937240481308824  1.0000
  O   O2        1.0  0.08804923852734144  0.3996497472719515  0.20432176294587778  1.0000
  O   O3        1.0  0.08801310856940647  0.38985170346024045  0.6234052893611715  1.0000
  O   O4        1.0  0.0880303088569907  0.5834280007918453  0.4061986998755641  1.0000
  O   O5        1.0  0.08803197488978531  0.2060734588294482  0.42152824415350465  1.0000
  O   O6        1.0  0.9471014733890967  0.5848408903242899  0.40572986210715783  1.0000
  O   O7        1.0  0.9470842731046979  0.39126615208898713  0.6229363747435777  1.0000
  O   O8        1.0  0.9471204032797814  0.4010641340805161  0.20385111547609358  1.0000
  O   O9        1.0  0.9471031396287342  0.2074878373858049  0.4210577047431523  1.0000
