data_image0
_chemical_formula_structural       NC9NC3OH6C6SCH8C8H10Zn2C4O8
_chemical_formula_sum              "N2 C31 O9 H24 S1 Zn2"
_cell_length_a       15.78231758774541
_cell_length_b       10.302809429070853
_cell_length_c       9.275657083861812
_cell_angle_alpha    85.85419947876746
_cell_angle_beta     89.58874472212383
_cell_angle_gamma    89.63144148246117

_space_group_name_H-M_alt    "P 1"
_space_group_IT_number       1

loop_
  _space_group_symop_operation_xyz
  'x, y, z'

loop_
  _atom_site_type_symbol
  _atom_site_label
  _atom_site_symmetry_multiplicity
  _atom_site_fract_x
  _atom_site_fract_y
  _atom_site_fract_z
  _atom_site_occupancy
  N   N1        1.0  0.8059515375157825  0.40542325723943945  0.41263517721530385  1.0000
  C   C1        1.0  0.7572841959071449  0.323509534298279  0.439363095457985  1.0000
  C   C2        1.0  0.6968619211597955  0.22183469501617137  0.4725393277022493  1.0000
  C   C3        1.0  0.7163139901813024  0.09411430021359823  0.5141258784734042  1.0000
  C   C4        1.0  0.6394809630632164  0.032216383978494134  0.5343630992025061  1.0000
  C   C5        1.0  0.5778558844390809  0.1267443077897641  0.5036301123560079  1.0000
  C   C6        1.0  0.48473562067928505  0.1092680155470951  0.5094140306081383  1.0000
  C   C7        1.0  0.4311678153023803  0.21642640917333342  0.4743911558196956  1.0000
  C   C8        1.0  0.3429372782299256  0.20209630567264836  0.47914177835407673  1.0000
  C   C9        1.0  0.2886781806455109  0.31237248556186037  0.4430907414824527  1.0000
  N   N2        1.0  0.2450667446907279  0.4010202999501611  0.4141089299085845  1.0000
  C   C10       1.0  0.3075929839349001  0.08044832885252616  0.518969657671531  1.0000
  C   C11       1.0  0.36023019874332585  0.9735115048004468  0.5539249599408194  1.0000
  C   C12       1.0  0.44827442003341317  0.9874479307722961  0.549303432849592  1.0000
  O   O1        1.0  0.6144992338988108  0.2387716792177286  0.46709935044068945  1.0000
  H   H1        1.0  0.7787036902214999  0.051042137339753824  0.5280939131479894  1.0000
  H   H2        1.0  0.6305809747159398  0.9304394160246523  0.5675192295129887  1.0000
  H   H3        1.0  0.4579302076936566  0.3110900805979673  0.4433927627719458  1.0000
  H   H4        1.0  0.2394563348738366  0.06831146485883965  0.5229908320627916  1.0000
  H   H5        1.0  0.33273856106851485  0.879495005559766  0.5847119020688527  1.0000
  H   H6        1.0  0.4872206460817691  0.9027464780792557  0.5769996511426791  1.0000
  C   C13       1.0  0.025513170948442614  0.02196835713771473  0.4133783205123817  1.0000
  C   C14       1.0  0.07503905072748451  0.028549392746625823  0.28670213358900964  1.0000
  C   C15       1.0  0.09944981381118051  0.9148464424387804  0.22350802020493132  1.0000
  C   C16       1.0  0.07503894428504271  0.7933982355351341  0.2867020557600932  1.0000
  C   C17       1.0  0.025513137214872684  0.7844652188100498  0.4133783128315278  1.0000
  C   C18       1.0  0.0009704265682330958  0.8993782385780341  0.4760699659110767  1.0000
  S   S1        1.0  0.16288189922739993  0.9247445199758129  0.06182942264221625  1.0000
  C   C19       1.0  0.07166906208718421  0.933407036950445  0.9425576503296225  1.0000
  H   H7        1.0  0.006821554925264815  0.34680373582016855  0.4610853577333227  1.0000
  H   H8        1.0  0.09471021461098433  0.1217301967835811  0.2363843887294197  1.0000
  H   H9        1.0  0.09471002820506941  0.7063798046452799  0.2363842757700627  1.0000
  H   H10       1.0  0.9627551625236573  0.8933960339417597  0.5737660909501294  1.0000
  H   H11       1.0  0.006820178980781134  0.4537879743094069  0.46108376794458333  1.0000
  H   H12       1.0  0.03268802275804483  0.8444315992747934  0.9616492022900358  1.0000
  H   H13       1.0  0.03268881893354747  0.020666550534662157  0.961648680943377  1.0000
  H   H14       1.0  0.09412819130165934  0.9405964933231918  0.8286915251485305  1.0000
  C   C20       1.0  0.027671450525774688  0.4012379948770835  0.9900656548524576  1.0000
  C   C21       1.0  0.07156289395872939  0.49976605821867426  0.05515333157991175  1.0000
  C   C22       1.0  0.10797264536400414  0.6039258417599973  0.9715369318933149  1.0000
  C   C23       1.0  0.10174849206081982  0.6086592126751165  0.8208771558261883  1.0000
  C   C24       1.0  0.05968711881378902  0.5106940781027118  0.7543430171733196  1.0000
  C   C25       1.0  0.023354848502368672  0.40519555316916583  0.8366909538818299  1.0000
  C   C26       1.0  0.1557814557374323  0.7075578145627373  0.04289727340863414  1.0000
  C   C27       1.0  0.24885077212946372  0.6695776810015139  0.061054243875552805  1.0000
  H   H15       1.0  0.9896381290900197  0.19450248961193428  0.2877650822738815  1.0000
  H   H16       1.0  0.0759438410439161  0.49731514021452106  0.1718930607765816  1.0000
  H   H17       1.0  0.1303136931338744  0.6877237367797113  0.7545867855627731  1.0000
  H   H18       1.0  0.05750668541717216  0.5157754559336052  0.6373613785513688  1.0000
  H   H19       1.0  0.9233123462062398  0.2565696849168022  0.5685208171204142  1.0000
  H   H20       1.0  0.15114113649871308  0.8018563148066088  0.9770413822033136  1.0000
  H   H21       1.0  0.1275996681140743  0.722544191252833  0.15067918479583106  1.0000
  H   H22       1.0  0.25488268209242904  0.5771585477686976  0.12982268188683396  1.0000
  H   H23       1.0  0.2786686403082379  0.6573299184313899  0.9539795048366031  1.0000
  H   H24       1.0  0.2829250582768068  0.7471709291866462  0.11373520266790682  1.0000
  Zn  Zn1       1.0  0.9326706548428696  0.40414922982958335  0.41306878802109637  1.0000
  Zn  Zn2       1.0  0.11834753879011334  0.40228378618399946  0.4136871030268925  1.0000
  C   C28       1.0  0.024168890731875118  0.3992754085772747  0.6766606152097216  1.0000
  C   C29       1.0  0.026851329765446238  0.40715922585041153  0.15009542407558674  1.0000
  C   C30       1.0  0.02553806624343434  0.6403102615558867  0.4076339097116477  1.0000
  C   C31       1.0  0.025482090503578626  0.1661228140375712  0.4191222062164295  1.0000
  O   O2        1.0  0.09703949954143826  0.40843285488901887  0.20403752383963325  1.0000
  O   O3        1.0  0.09490518171697215  0.3965849696095601  0.6231873872659413  1.0000
  O   O4        1.0  0.09600985073540258  0.5912236782413747  0.40594641600436177  1.0000
  O   O5        1.0  0.09593476771514159  0.2137941556759195  0.42127838680609386  1.0000
  O   O6        1.0  0.9550833625554717  0.5926388609756252  0.40547750402331206  1.0000
  O   O7        1.0  0.9539786939249801  0.39800171181600047  0.6227183984235403  1.0000
  O   O8        1.0  0.9561130206423106  0.4098495437510872  0.20356680187074705  1.0000
  O   O9        1.0  0.9550082882615111  0.21521083575723443  0.42080777291374427  1.0000
