data_image0
_chemical_formula_structural       NC9NC3OH6C8NH7C6NO2H3Zn2C4O8
_chemical_formula_sum              "N4 C30 O11 H16 Zn2"
_cell_length_a       15.78231758774541
_cell_length_b       9.27426342843186
_cell_length_c       9.273395971720356
_cell_angle_alpha    84.92461197253164
_cell_angle_beta     89.96902430017013
_cell_angle_gamma    90.24871893605766

_space_group_name_H-M_alt    "P 1"
_space_group_IT_number       1

loop_
  _space_group_symop_operation_xyz
  'x, y, z'

loop_
  _atom_site_type_symbol
  _atom_site_label
  _atom_site_symmetry_multiplicity
  _atom_site_fract_x
  _atom_site_fract_y
  _atom_site_fract_z
  _atom_site_occupancy
  N   N1        1.0  0.8097084524394318  0.5862051965775861  0.40920944576848095  1.0000
  C   C1        1.0  0.7605681626972812  0.494784247533691  0.43603958033309825  1.0000
  C   C2        1.0  0.6995588458699142  0.3813086238342167  0.4693426884534587  1.0000
  C   C3        1.0  0.7182731522674041  0.23876587567035099  0.5110884855269424  1.0000
  C   C4        1.0  0.6410828986761138  0.16968321481922646  0.5314030055229904  1.0000
  C   C5        1.0  0.5800040272236887  0.2751806832989021  0.5005522258929718  1.0000
  C   C6        1.0  0.48678317467616355  0.2556747488645863  0.5063580727407972  1.0000
  C   C7        1.0  0.4338338504011541  0.37527126770361874  0.4712013943910291  1.0000
  C   C8        1.0  0.34552086387947767  0.3592767860151651  0.47597000959276936  1.0000
  C   C9        1.0  0.2918982067882803  0.48235312330535374  0.4397812625504176  1.0000
  N   N2        1.0  0.2487983813139089  0.5812906344209238  0.41068874765455204  1.0000
  C   C10       1.0  0.309474727291854  0.2235077592683241  0.5159498876193431  1.0000
  C   C11       1.0  0.3614947585199885  0.10415845230869514  0.551038723961143  1.0000
  C   C12       1.0  0.44961915874414454  0.11971355468876155  0.5463996964038922  1.0000
  O   O1        1.0  0.6172942820096741  0.40021002769271546  0.46388170437026205  1.0000
  H   H1        1.0  0.7804138325355933  0.1906959374208428  0.5251101403664771  1.0000
  H   H2        1.0  0.6315950723365381  0.05609444499540816  0.5646860600161452  1.0000
  H   H3        1.0  0.4611423801384277  0.48092369912902694  0.4400847116518807  1.0000
  H   H4        1.0  0.24126823865911493  0.20996128908607933  0.519986297383493  1.0000
  H   H5        1.0  0.3334607190080893  0.9992283108200433  0.5819431477856143  1.0000
  H   H6        1.0  0.4880765675849481  0.02518040286313174  0.5742016966173935  1.0000
  C   C13       1.0  0.026575971418017378  0.16019123670160343  0.4102468577529416  1.0000
  C   C14       1.0  0.015785117822197048  0.245051896285434  0.2782733032991499  1.0000
  C   C15       1.0  0.013302870915976586  0.18153601667314945  0.14752206473227164  1.0000
  C   C16       1.0  0.022238807831309826  0.03167550604034974  0.14551259764337288  1.0000
  C   C17       1.0  0.03075692204250967  0.9453449385219722  0.27659354456462987  1.0000
  C   C18       1.0  0.031938866810272915  0.007293339059266881  0.40966385646384484  1.0000
  C   C19       1.0  0.018298386508417645  0.9632052520032142  0.004642591922448204  1.0000
  C   C20       1.0  0.9304295127908866  0.9255880175388533  0.972261396113636  1.0000
  N   N3        1.0  0.8610764728441852  0.8958960907800954  0.9467131553260599  1.0000
  H   H7        1.0  0.09928768175991554  0.23416244264238958  0.7433277530815796  1.0000
  H   H8        1.0  0.011104343486212807  0.36174791973407516  0.2758930847580683  1.0000
  H   H9        1.0  0.005201934441006138  0.2496011281807089  0.04744816289823018  1.0000
  H   H10       1.0  0.03441756518858272  0.8288342953146505  0.27470426966756034  1.0000
  H   H11       1.0  0.07759353611156712  0.7069228319120681  0.6358623931935588  1.0000
  H   H12       1.0  0.05743610575592717  0.863593476407874  0.010361251652939881  1.0000
  H   H13       1.0  0.043428620746368746  0.03867676449043823  0.9148867027459205  1.0000
  C   C21       1.0  0.029767616191517233  0.5881678455418264  0.986017208048307  1.0000
  C   C22       1.0  0.9544613973473561  0.621934326209622  0.056326841023960794  1.0000
  C   C23       1.0  0.8788316820233909  0.6420652327663647  0.9796289390457059  1.0000
  C   C24       1.0  0.8763615747632679  0.6288410241005524  0.8303353821445335  1.0000
  C   C25       1.0  0.9516381637361909  0.5975464914835673  0.7585862176774338  1.0000
  C   C26       1.0  0.028747193724944598  0.5793166821165869  0.8338935077464331  1.0000
  N   N4        1.0  0.7979370119293016  0.6485225074417279  0.7519203209644252  1.0000
  O   O2        1.0  0.724503640786696  0.6803441021630874  0.8224255225213427  1.0000
  O   O3        1.0  0.7951635011733379  0.6366661514094285  0.6189238696122246  1.0000
  H   H14       1.0  0.21413913446309737  0.4245082296432137  0.10317496662089232  1.0000
  H   H15       1.0  0.8219628646716907  0.6666201013598948  0.03780336018633722  1.0000
  H   H16       1.0  0.15449116763652163  0.4733309204826233  0.5629420681587067  1.0000
  Zn  Zn1       1.0  0.9364202829870858  0.5847830204212112  0.4096446728932488  1.0000
  Zn  Zn2       1.0  0.12208643354401633  0.5827009153793523  0.41026532996756465  1.0000
  C   C27       1.0  0.028901825144859162  0.5752437665246467  0.6736306617854719  1.0000
  C   C28       1.0  0.029606930205765315  0.5922419649465982  0.14627948829488435  1.0000
  C   C29       1.0  0.030927723106021432  0.8472330781120097  0.40402118900394635  1.0000
  C   C30       1.0  0.02758095782629976  0.3202509203604125  0.4158890390244992  1.0000
  O   O4        1.0  0.1000122992131986  0.5928128361289053  0.20030051401560622  1.0000
  O   O5        1.0  0.0994127619993605  0.5730915420294602  0.6200802855964804  1.0000
  O   O6        1.0  0.10104774859186143  0.7927263458917144  0.40236872458626344  1.0000
  O   O7        1.0  0.09837724946100773  0.3731780444250352  0.4180119665630948  1.0000
  O   O8        1.0  0.9601294037113689  0.7943058920876984  0.4018980360783244  1.0000
  O   O9        1.0  0.9584944281784445  0.5746728219364365  0.6196095189210573  1.0000
  O   O10       1.0  0.9590939672192902  0.5943940838922042  0.19982801168735365  1.0000
  O   O11       1.0  0.9574589172680631  0.3747592807421204  0.4175395724781766  1.0000
