data_image0
_chemical_formula_structural       NC9NC3OH6C6NCOC6H11C7OC6H9Zn2C4O8
_chemical_formula_sum              "N3 C42 O11 H26 Zn2"
_cell_length_a       15.78231758774541
_cell_length_b       10.29965916528486
_cell_length_c       10.299382801718286
_cell_angle_alpha    85.58981362736998
_cell_angle_beta     90.06446718373022
_cell_angle_gamma    89.64856781770791

_space_group_name_H-M_alt    "P 1"
_space_group_IT_number       1

loop_
  _space_group_symop_operation_xyz
  'x, y, z'

loop_
  _atom_site_type_symbol
  _atom_site_label
  _atom_site_symmetry_multiplicity
  _atom_site_fract_x
  _atom_site_fract_y
  _atom_site_fract_z
  _atom_site_occupancy
  N   N1        1.0  0.7984512716847407  0.412960506334036  0.5703656975119775  1.0000
  C   C1        1.0  0.7498988331299092  0.33090359373701617  0.5944192228370979  1.0000
  C   C2        1.0  0.6896191829072346  0.2290510195367339  0.6242758448676036  1.0000
  C   C3        1.0  0.709249979505728  0.10110775763984581  0.661701163754232  1.0000
  C   C4        1.0  0.6325039761578574  0.03910145894771744  0.6799134894719137  1.0000
  C   C5        1.0  0.5707468431429932  0.1337941237452667  0.6522557504603219  1.0000
  C   C6        1.0  0.4776514932229972  0.11628691509408393  0.6574610099250786  1.0000
  C   C7        1.0  0.42393309024144  0.22363288751353122  0.6259424642409279  1.0000
  C   C8        1.0  0.33572302085836986  0.20927739753561678  0.6302178129079474  1.0000
  C   C9        1.0  0.2813088991119049  0.31974665510636524  0.5977739723573063  1.0000
  N   N2        1.0  0.2375728367303508  0.40854968547071907  0.5716920228378823  1.0000
  C   C10       1.0  0.30055002704969147  0.08741616611224436  0.6660606500838095  1.0000
  C   C11       1.0  0.35333755179922477  0.980292129319724  0.6975183891566745  1.0000
  C   C12       1.0  0.44136186076394796  0.9942532507139141  0.693359219280498  1.0000
  O   O1        1.0  0.6072331610270316  0.2460172214064136  0.6193802755324769  1.0000
  H   H1        1.0  0.7716996763891009  0.057960689950625546  0.6742714742111777  1.0000
  H   H2        1.0  0.6237464939123848  0.9371468180111678  0.7097519688529821  1.0000
  H   H3        1.0  0.4505621548054496  0.3184625324142072  0.598045659866957  1.0000
  H   H4        1.0  0.23243070151585488  0.07525781169262324  0.6696795256494406  1.0000
  H   H5        1.0  0.3259783327568631  0.8861107891682113  0.7252249000936588  1.0000
  H   H6        1.0  0.48042718773183585  0.9094034711429259  0.7182842138865799  1.0000
  C   C13       1.0  0.017941592385571914  0.02939510298712844  0.5709131621104204  1.0000
  C   C14       1.0  0.01854792700325869  0.03864459806145648  0.4341006810120718  1.0000
  C   C15       1.0  0.020102803603435183  0.9264556597838948  0.36527062751962314  1.0000
  C   C16       1.0  0.01870750621435957  0.8034527572831924  0.4343975436611358  1.0000
  C   C17       1.0  0.018090582509521436  0.7921050001248633  0.5711557698392455  1.0000
  C   C18       1.0  0.01800926499947541  0.9056808604822001  0.6386425613842834  1.0000
  N   N3        1.0  0.019421067394406175  0.9395093419600676  0.22520415768081525  1.0000
  C   C19       1.0  0.05915657443856823  0.847966575292086  0.14559904261735546  1.0000
  O   O2        1.0  0.11759802629677457  0.7745696037143108  0.19275302044740328  1.0000
  C   C20       1.0  0.03455891771371001  0.8419914243230451  0.007160226860001948  1.0000
  C   C21       1.0  0.9562196787290131  0.8926270330122232  0.9605784195884676  1.0000
  C   C22       1.0  0.9335438092180043  0.8858172894732657  0.8299889197294839  1.0000
  C   C23       1.0  0.9884182134401025  0.828163312087469  0.744699106604068  1.0000
  C   C24       1.0  0.0660118699438958  0.7767474167886276  0.7899024599051838  1.0000
  C   C25       1.0  0.0890112312700359  0.783197559134441  0.9203884635557874  1.0000
  H   H7        1.0  0.015989117242891655  0.21921956388295344  0.8289829148314383  1.0000
  H   H8        1.0  0.01846241960043637  0.1332448061054563  0.3802781144721996  1.0000
  H   H9        1.0  0.016615029354764665  0.7166734104459873  0.3815865630396962  1.0000
  H   H10       1.0  0.017553179265197266  0.8976850417592547  0.7441095797262927  1.0000
  H   H11       1.0  0.01672666254381426  0.4603142417698468  0.6236124660204647  1.0000
  H   H12       1.0  0.9952551143957978  0.025876527277828743  0.17919133308276858  1.0000
  H   H13       1.0  0.9118042642519606  0.9357819000164549  0.024925788036839203  1.0000
  H   H14       1.0  0.8731659483927696  0.9248506532976243  0.7950212648881188  1.0000
  H   H15       1.0  0.9706964569537396  0.8229653713415677  0.6436893956618683  1.0000
  H   H16       1.0  0.10842289650614312  0.7318165832238308  0.7237853411387722  1.0000
  H   H17       1.0  0.149601767048405  0.7429755295545307  0.9531380814381993  1.0000
  C   C26       1.0  0.0181006034104676  0.41067599782213127  0.18966492150230851  1.0000
  C   C27       1.0  0.10711699697763133  0.4106453084480777  0.18863040465620107  1.0000
  C   C28       1.0  0.15201405088382214  0.40914178877319757  0.0710500347730294  1.0000
  C   C29       1.0  0.10691052628665493  0.4106754184726822  0.9533842212497019  1.0000
  C   C30       1.0  0.017931551868073367  0.41082414810741175  0.9524039915618432  1.0000
  C   C31       1.0  0.9740426638659528  0.4104788618069082  0.07111161621128503  1.0000
  C   C32       1.0  0.24600406211120773  0.41049330362050934  0.06970615816371839  1.0000
  O   O3        1.0  0.28334916997759807  0.47082569037349864  0.9753113772707782  1.0000
  C   C33       1.0  0.29762812460736865  0.3433930684638091  0.17534710422062671  1.0000
  C   C34       1.0  0.37727910175921453  0.3930516570156428  0.20670512184610113  1.0000
  C   C35       1.0  0.4268373616312944  0.32962140481957003  0.30508923238513463  1.0000
  C   C36       1.0  0.3977821170054159  0.21561226027495906  0.3723291169979468  1.0000
  C   C37       1.0  0.3192544273428204  0.16449545847988012  0.3409510137276759  1.0000
  C   C38       1.0  0.2694547178639284  0.22754943213942935  0.24266811436960878  1.0000
  H   H18       1.0  0.8501137365560031  0.41274555806450675  0.39878239311750563  1.0000
  H   H19       1.0  0.14163629141553702  0.4132489832660679  0.27933444763783255  1.0000
  H   H20       1.0  0.14143797596319374  0.4104999495369346  0.862537079407792  1.0000
  H   H21       1.0  0.9054177315365617  0.410503319690884  0.07110491570816735  1.0000
  H   H22       1.0  0.400820396781171  0.4814862345566948  0.1558689051595863  1.0000
  H   H23       1.0  0.4878370588307481  0.36889153188925833  0.3291588320270642  1.0000
  H   H24       1.0  0.43626376539809564  0.16659956139241966  0.44837329987069613  1.0000
  H   H25       1.0  0.2970922391902613  0.07559112994280492  0.3924200130762227  1.0000
  H   H26       1.0  0.20947180223382944  0.18498699706522093  0.21841432237497574  1.0000
  Zn  Zn1       1.0  0.9251722638257178  0.41168417127195256  0.5707559387264343  1.0000
  Zn  Zn2       1.0  0.11085181167354928  0.40981542337328375  0.5713123945886067  1.0000
  C   C39       1.0  0.017960630845423417  0.40562259985059623  0.8082283574104976  1.0000
  C   C40       1.0  0.018065472560601318  0.41587861299382367  0.3338401099689494  1.0000
  C   C41       1.0  0.018059216591580038  0.6479356610170159  0.5659347370093994  1.0000
  C   C42       1.0  0.01796682313483578  0.17356399221259375  0.5761337989225679  1.0000
  O   O4        1.0  0.08851810195077986  0.41690981247509695  0.38243779057234084  1.0000
  O   O5        1.0  0.08843448183091529  0.4031720841820168  0.760052639772661  1.0000
  O   O6        1.0  0.08851314087439088  0.5988429553631753  0.5643988246140301  1.0000
  O   O7        1.0  0.08843937957084536  0.22123895120270687  0.5780915081692148  1.0000
  O   O8        1.0  0.9475846325651069  0.6002606440816545  0.5639768249491046  1.0000
  O   O9        1.0  0.947505973837926  0.40459133315443013  0.7596305713584939  1.0000
  O   O10       1.0  0.9475895943513009  0.4183290158887789  0.3820141607406351  1.0000
  O   O11       1.0  0.9475108719445102  0.2226581453467451  0.5776679757025442  1.0000
