data_image0
_chemical_formula_structural       NC9NC3OH6C10IC2H9C10SC3H12Zn2C4O8
_chemical_formula_sum              "N2 C41 O9 H27 I1 S1 Zn2"
_cell_length_a       15.78231758774541
_cell_length_b       10.299770258652044
_cell_length_c       10.299154459856256
_cell_angle_alpha    85.57273194020131
_cell_angle_beta     90.05839554295305
_cell_angle_gamma    89.64982520104654

_space_group_name_H-M_alt    "P 1"
_space_group_IT_number       1

loop_
  _space_group_symop_operation_xyz
  'x, y, z'

loop_
  _atom_site_type_symbol
  _atom_site_label
  _atom_site_symmetry_multiplicity
  _atom_site_fract_x
  _atom_site_fract_y
  _atom_site_fract_z
  _atom_site_occupancy
  N   N1        1.0  0.798569948450729  0.41298244157967545  0.5699174332969883  1.0000
  C   C1        1.0  0.7500146951194362  0.33092447319174056  0.5939956737282945  1.0000
  C   C2        1.0  0.6897315510507561  0.22907058849700412  0.6238829732209341  1.0000
  C   C3        1.0  0.7093579643058244  0.10112568070138694  0.661346826173904  1.0000
  C   C4        1.0  0.6326098314638674  0.03911858406677293  0.6795778286700027  1.0000
  C   C5        1.0  0.5708559397707974  0.13381246686518725  0.6518915709590882  1.0000
  C   C6        1.0  0.4777599842354607  0.11630503268510403  0.6571021051405457  1.0000
  C   C7        1.0  0.42404526710830454  0.22365238647113347  0.6255512262583023  1.0000
  C   C8        1.0  0.3358347006401022  0.20929671153846272  0.6298309002261387  1.0000
  C   C9        1.0  0.28142437256002045  0.319767390697848  0.5973537855424569  1.0000
  N   N2        1.0  0.23769135988580672  0.4085715638408151  0.5712450878843225  1.0000
  C   C10       1.0  0.300657518265534  0.08743391173027203  0.6657104440696207  1.0000
  C   C11       1.0  0.35344136447982843  0.9803084964110029  0.6972004495897002  1.0000
  C   C12       1.0  0.44146615696189295  0.9942697976836463  0.6930370732073137  1.0000
  O   O1        1.0  0.6073461057805577  0.24603700837587866  0.618982295493556  1.0000
  H   H1        1.0  0.77180618648416  0.057978058144002774  0.6739301305671954  1.0000
  H   H2        1.0  0.6238488551942142  0.9371626315002604  0.7094470151813299  1.0000
  H   H3        1.0  0.45067759144570885  0.31848325187074567  0.5976258574830731  1.0000
  H   H4        1.0  0.23253777187317182  0.07527540067142868  0.6693329828929695  1.0000
  H   H5        1.0  0.3260789079202877  0.8861259441029523  0.7249353296563119  1.0000
  H   H6        1.0  0.4805285697004401  0.9094189261919018  0.7179876252957547  1.0000
  C   C13       1.0  0.018054847755500033  0.029412516840989555  0.5705779258660151  1.0000
  C   C14       1.0  0.024382828887678176  0.038884365480757355  0.434197804035384  1.0000
  C   C15       1.0  0.0276704622913908  0.9265437283448357  0.365102295209613  1.0000
  C   C16       1.0  0.024544249872384447  0.803594952603906  0.4342159086999764  1.0000
  C   C17       1.0  0.018214529257240212  0.7921314084989646  0.5705958572584531  1.0000
  C   C18       1.0  0.015005738875145433  0.9055966638158159  0.6380132174972897  1.0000
  C   C19       1.0  0.03436543910145673  0.9376174840928817  0.2208253267800473  1.0000
  C   C20       1.0  0.0886032989218517  0.8542245891005826  0.15704098547177026  1.0000
  C   C21       1.0  0.09481936774598781  0.8648600861904332  0.021236029366971335  1.0000
  C   C22       1.0  0.04704447290963307  0.9585889718896348  0.9475717550682798  1.0000
  I   I1        1.0  0.05654894732586288  0.9743099093071477  0.7427272525141251  1.0000
  C   C23       1.0  0.9929625834508691  0.04188572835208171  0.009837752732912538  1.0000
  C   C24       1.0  0.9865767310128736  0.03167728048287045  0.14562366536418048  1.0000
  H   H7        1.0  0.015605110664579359  0.3532574157811281  0.6225408162100539  1.0000
  H   H8        1.0  0.027938556605948673  0.13384821104047662  0.3815161457320031  1.0000
  H   H9        1.0  0.02588955183921327  0.7167372109295022  0.3812869567842181  1.0000
  H   H10       1.0  0.01012322151106914  0.8975213426784285  0.74322415010235  1.0000
  H   H11       1.0  0.015840227212439825  0.4603089753326001  0.6225670419523724  1.0000
  H   H12       1.0  0.12699683981323617  0.7819827261188742  0.21223714356887816  1.0000
  H   H13       1.0  0.13694601610288204  0.8004203717022809  0.9733651843244836  1.0000
  H   H14       1.0  0.9556905624130344  0.1143552318418452  0.9530817817870975  1.0000
  H   H15       1.0  0.943484001348614  0.09614677916416903  0.19170116533199444  1.0000
  C   C25       1.0  0.018245569816728095  0.41069931404110926  0.18920882447861254  1.0000
  C   C26       1.0  0.9346210196061618  0.3648084536831744  0.19184000544654414  1.0000
  C   C27       1.0  0.8921083684212834  0.34161715046101515  0.07602511599066286  1.0000
  C   C28       1.0  0.9343456232067061  0.36493271053565457  0.9565467606997357  1.0000
  C   C29       1.0  0.018023786954451722  0.4108446512910499  0.9519649816922363  1.0000
  C   C30       1.0  0.059458624786213415  0.43344785964904203  0.06876912195824514  1.0000
  C   C31       1.0  0.8036490722867163  0.29306124283468593  0.07984488287513258  1.0000
  C   C32       1.0  0.778601401864146  0.19565453658769538  0.1752009544309847  1.0000
  C   C33       1.0  0.6953416347849787  0.14999863616791306  0.1785629942529683  1.0000
  C   C34       1.0  0.6361327438746323  0.20074764857879865  0.086786268581446  1.0000
  S   S1        1.0  0.5292623036256373  0.14229850017756962  0.09155131704462005  1.0000
  C   C35       1.0  0.551074630041126  0.014077300331069454  0.98397879383543  1.0000
  C   C36       1.0  0.6602802526426257  0.2979064659945925  0.9919172537731168  1.0000
  C   C37       1.0  0.7434969613483872  0.3437421363499863  0.9881921770015697  1.0000
  H   H16       1.0  0.05042589090684135  0.42828394638873957  0.5156775670893539  1.0000
  H   H17       1.0  0.9019521530394357  0.3486873004203567  0.28405131297735253  1.0000
  H   H18       1.0  0.9022768151886259  0.34553615278806227  0.8671033822496527  1.0000
  H   H19       1.0  0.12396137773058519  0.46884051216837874  0.0660241920956588  1.0000
  H   H20       1.0  0.17614467560465474  0.49672096150862144  0.7360840423702224  1.0000
  H   H21       1.0  0.8236631279571455  0.15362455633616512  0.24607848668967636  1.0000
  H   H22       1.0  0.6770413328419713  0.07472963136901556  0.2522055829500429  1.0000
  H   H23       1.0  0.49199008547465456  0.9592217590564307  0.9694627656441375  1.0000
  H   H24       1.0  0.5998203060543611  0.9460611104812018  0.028065801931777885  1.0000
  H   H25       1.0  0.5735166369864934  0.05704687247168654  0.8880588149246772  1.0000
  H   H26       1.0  0.6146238611978613  0.33804185083135274  0.9210098057542296  1.0000
  H   H27       1.0  0.760530574551412  0.41997679082717565  0.9147355940861126  1.0000
  Zn  Zn1       1.0  0.9252908956963328  0.4117060900359757  0.5703080592966454  1.0000
  Zn  Zn2       1.0  0.11097037884185963  0.40983731806088713  0.5708650782093729  1.0000
  C   C38       1.0  0.018062758762631404  0.40564356898413867  0.8077875697973353  1.0000
  C   C39       1.0  0.018200543695762388  0.4159014573304782  0.33338570129929  1.0000
  C   C40       1.0  0.018181497715966888  0.647960381248577  0.565417139472173  1.0000
  C   C41       1.0  0.01808174103618819  0.17358308543260012  0.5757562006380375  1.0000
  O   O2        1.0  0.08864982750898287  0.41693248924010823  0.3819841638737745  1.0000
  O   O3        1.0  0.08853990622964608  0.40319320260359537  0.7596114978110737  1.0000
  O   O4        1.0  0.08863483914975995  0.5988671028389754  0.5638956576945804  1.0000
  O   O5        1.0  0.08855483125929406  0.22125859891397412  0.5776999064234116  1.0000
  O   O6        1.0  0.947706379915606  0.600284809822021  0.563473230885692  1.0000
  O   O7        1.0  0.9476114473384393  0.4046124698592133  0.7591890017916869  1.0000
  O   O8        1.0  0.9477213691186039  0.4183517109422328  0.3815601064153853  1.0000
  O   O9        1.0  0.9476263728351972  0.22267781134598555  0.577275946334965  1.0000
