data_image0
_chemical_formula_structural       NC9NC3OH6C7F3H5C7OH5Zn2C4O8
_chemical_formula_sum              "N2 C30 O10 H16 F3 Zn2"
_cell_length_a       15.78231758774541
_cell_length_b       9.27228830945605
_cell_length_c       9.274081674992354
_cell_angle_alpha    85.76911069333654
_cell_angle_beta     89.75780300142802
_cell_angle_gamma    89.05832516092083

_space_group_name_H-M_alt    "P 1"
_space_group_IT_number       1

loop_
  _space_group_symop_operation_xyz
  'x, y, z'

loop_
  _atom_site_type_symbol
  _atom_site_label
  _atom_site_symmetry_multiplicity
  _atom_site_fract_x
  _atom_site_fract_y
  _atom_site_fract_z
  _atom_site_occupancy
  N   N1        1.0  0.7940919746425886  0.5563852275671326  0.4046487726093344  1.0000
  C   C1        1.0  0.746004118802093  0.4654242285829098  0.4318508892458949  1.0000
  C   C2        1.0  0.6863011273984007  0.352519522264724  0.4656157168991628  1.0000
  C   C3        1.0  0.7066565851950996  0.21069222571297286  0.5079416524385526  1.0000
  C   C4        1.0  0.6302615136616433  0.14195790855658896  0.5285371947480356  1.0000
  C   C5        1.0  0.5679679003761051  0.24692675124747732  0.49725697122984713  1.0000
  C   C6        1.0  0.47497140834891416  0.2275205307548327  0.5031420489033888  1.0000
  C   C7        1.0  0.4206454296065579  0.34651422677898935  0.4674988420257291  1.0000
  C   C8        1.0  0.33251639564443713  0.3306016625661621  0.47233241159042505  1.0000
  C   C9        1.0  0.2774770499801817  0.45305745974908507  0.4356429952082188  1.0000
  N   N2        1.0  0.23323839285121042  0.5514961089107062  0.4061480090983549  1.0000
  C   C10       1.0  0.2980329100216297  0.1955183171485957  0.5128644929443296  1.0000
  C   C11       1.0  0.3514267387598904  0.0767706806536461  0.5484388440109136  1.0000
  C   C12       1.0  0.43937224303817957  0.09224608853171802  0.5437366488029258  1.0000
  O   O1        1.0  0.6038187689305866  0.371327503477986  0.4600776800100747  1.0000
  H   H1        1.0  0.7693508461983913  0.1628624667437204  0.5221590432006225  1.0000
  H   H2        1.0  0.62208144041329  0.028939591689418842  0.5622825187702878  1.0000
  H   H3        1.0  0.44673795147561973  0.45163297471881353  0.43595245576575853  1.0000
  H   H4        1.0  0.22998222489062412  0.18204118103377298  0.516955919536259  1.0000
  H   H5        1.0  0.3246003928089802  0.9723705832489412  0.5797700329100455  1.0000
  H   H6        1.0  0.47891777587570156  0.9981896800105087  0.5719231958757798  1.0000
  C   C13       1.0  0.016155060990240992  0.13010819095082948  0.40762821807390515  1.0000
  C   C14       1.0  0.05680641726063285  0.2106477378029754  0.29392520117831195  1.0000
  C   C15       1.0  0.08910682491499466  0.14360941318249631  0.17516846945839568  1.0000
  C   C16       1.0  0.08046005276161106  0.9944186378086427  0.16592596018924377  1.0000
  C   C17       1.0  0.04289339905926348  0.912178694717586  0.2814741390025004  1.0000
  C   C18       1.0  0.011183435142555044  0.977762100305548  0.40318111858178685  1.0000
  C   C19       1.0  0.11752060002692571  0.9213331703701562  0.039449907001826816  1.0000
  F   F1        1.0  0.11721042292140854  0.014832983524271984  0.9159788120623835  1.0000
  F   F2        1.0  0.07095378951790549  0.801252933526019  0.011816066389249258  1.0000
  F   F3        1.0  0.20004367975267756  0.8781360932059648  0.07094402019881296  1.0000
  H   H7        1.0  0.8728043371324893  0.2165980662142997  0.6663919418875626  1.0000
  H   H8        1.0  0.06214622077456422  0.32686588842554243  0.29543483575577967  1.0000
  H   H9        1.0  0.12027522552202824  0.20897521290996537  0.08974623116341962  1.0000
  H   H10       1.0  0.040196936111059005  0.7957409329207835  0.27822398226579903  1.0000
  H   H11       1.0  0.970522544972975  0.8516474483581536  0.7521023941891587  1.0000
  C   C20       1.0  0.015121488120371616  0.5501357588531075  0.9821596592060952  1.0000
  C   C21       1.0  0.08357198348337369  0.6121829143668959  0.05059113527258275  1.0000
  C   C22       1.0  0.14716140605291572  0.6849310347573891  0.9699413389069607  1.0000
  C   C23       1.0  0.1422808495862431  0.6960235996791162  0.8187442817217885  1.0000
  C   C24       1.0  0.07561083525461344  0.6331337388387901  0.7491203577795331  1.0000
  C   C25       1.0  0.012216991583443363  0.557734501685077  0.828649610281641  1.0000
  C   C26       1.0  0.2175708553407893  0.7498293080739841  0.04528333689618335  1.0000
  O   O2        1.0  0.27549211115640154  0.8164231461204147  0.9757899124835595  1.0000
  H   H12       1.0  0.8149008619486381  0.4586151729530222  0.0933349132703889  1.0000
  H   H13       1.0  0.1904658528265627  0.7521685246324985  0.754004661607135  1.0000
  H   H14       1.0  0.07478112944353077  0.640599593430497  0.6320047924295665  1.0000
  H   H15       1.0  0.878787966891423  0.49017145132301243  0.5534706375424453  1.0000
  H   H16       1.0  0.22009499958343037  0.7406263221675324  0.1622470977739856  1.0000
  Zn  Zn1       1.0  0.9208201352843116  0.5549705529565916  0.405089756384847  1.0000
  Zn  Zn2       1.0  0.10651023237991669  0.5528991096160245  0.40571886916397876  1.0000
  C   C27       1.0  0.01279783122175893  0.550548464551396  0.6686750773035877  1.0000
  C   C28       1.0  0.014534553006239292  0.5573229977429242  0.14213368702393514  1.0000
  C   C29       1.0  0.01213850629088386  0.8174859436032544  0.3982782507171296  1.0000
  C   C30       1.0  0.015193824480838055  0.2903837860529943  0.412530599334499  1.0000
  O   O3        1.0  0.08480603326661913  0.5589427022240339  0.19606121019582187  1.0000
  O   O4        1.0  0.0834608458902446  0.5473554899704545  0.6152246269906361  1.0000
  O   O5        1.0  0.08292747757995483  0.7629109042401704  0.3968772653279002  1.0000
  O   O6        1.0  0.08533933852370329  0.34338729801571155  0.4144084635228573  1.0000
  O   O7        1.0  0.9419909657736243  0.7644823652652899  0.39640016180369403  1.0000
  O   O8        1.0  0.9425243241732906  0.5489286843420298  0.6147474375200487  1.0000
  O   O9        1.0  0.9438695178468176  0.5605158307445721  0.19558228813954323  1.0000
  O   O10       1.0  0.9444028227902077  0.344960417183241  0.41392964958000406  1.0000
