data_image0
_chemical_formula_structural       NC9NC3OH6C6NCOC6H11C7OC3FC3H8Zn2C4O8
_chemical_formula_sum              "N3 C42 O11 H25 F1 Zn2"
_cell_length_a       15.78231758774541
_cell_length_b       10.29965916528486
_cell_length_c       10.29938172300155
_cell_angle_alpha    85.59399439143573
_cell_angle_beta     90.06753164669175
_cell_angle_gamma    89.64856781770791

_space_group_name_H-M_alt    "P 1"
_space_group_IT_number       1

loop_
  _space_group_symop_operation_xyz
  'x, y, z'

loop_
  _atom_site_type_symbol
  _atom_site_label
  _atom_site_symmetry_multiplicity
  _atom_site_fract_x
  _atom_site_fract_y
  _atom_site_fract_z
  _atom_site_occupancy
  N   N1        1.0  0.7984017950950337  0.4128563567646011  0.5703734655874826  1.0000
  C   C1        1.0  0.7498501889813384  0.3308011964788555  0.5944268602151228  1.0000
  C   C2        1.0  0.6895715720325827  0.22895079734832602  0.6242833200163824  1.0000
  C   C3        1.0  0.709203663841428  0.10101026190451878  0.6617084355484173  1.0000
  C   C4        1.0  0.6324582907832517  0.0390052899893698  0.6799206623074205  1.0000
  C   C5        1.0  0.5707002005931133  0.13369593990688666  0.652263073577201  1.0000
  C   C6        1.0  0.47760503081602934  0.11618911046144274  0.6574683047586072  1.0000
  C   C7        1.0  0.4238855370449255  0.2235327867391732  0.6259499303339471  1.0000
  C   C8        1.0  0.335675615622541  0.20917760822253362  0.6302252557703885  1.0000
  C   C9        1.0  0.2812603710640502  0.3196445022433738  0.5977815915069296  1.0000
  N   N2        1.0  0.23752340604193065  0.4084456325247432  0.5716997837066526  1.0000
  C   C10       1.0  0.300503862257902  0.08731898796766278  0.6660678981902455  1.0000
  C   C11       1.0  0.3532924756925953  0.9801972428870677  0.6975254663340191  1.0000
  C   C12       1.0  0.4413166407173323  0.9941580612836654  0.6933663190571504  1.0000
  O   O1        1.0  0.6071853807271822  0.24591664257334678  0.6193877772818714  1.0000
  H   H1        1.0  0.7716537957563975  0.05786410996866209  0.6742786777031962  1.0000
  H   H2        1.0  0.6237018411838197  0.9370528228008722  0.7097589795578234  1.0000
  H   H3        1.0  0.45051363616011936  0.318360399343786  0.5980532775403369  1.0000
  H   H4        1.0  0.23238466196561933  0.07516089718492493  0.6696867540923173  1.0000
  H   H5        1.0  0.3259342155133993  0.8860179211686464  0.7252318267246236  1.0000
  H   H6        1.0  0.48038283028604717  0.9093100975109214  0.7182911782305275  1.0000
  C   C13       1.0  0.017892134742445664  0.02929099330076146  0.5709209272112159  1.0000
  C   C14       1.0  0.01849373457237412  0.038530521517848644  0.43410918949855803  1.0000
  C   C15       1.0  0.020046229111410734  0.926336568936683  0.36527951000178827  1.0000
  C   C16       1.0  0.018653324057257503  0.803338702366176  0.4344060505345859  1.0000
  C   C17       1.0  0.018041133262530526  0.7920009081125903  0.5711635336218053  1.0000
  C   C18       1.0  0.017962151326197166  0.9055816849162306  0.6386499584699257  1.0000
  N   N3        1.0  0.01935964550102341  0.9393800472009183  0.2252138012295777  1.0000
  C   C19       1.0  0.05909239758217841  0.8478314812607418  0.14560911870928162  1.0000
  O   O2        1.0  0.11753548133884334  0.7744379448736863  0.19276284032299573  1.0000
  C   C20       1.0  0.03448994978559347  0.8418462449551716  0.007171055174487687  1.0000
  C   C21       1.0  0.9561490987040384  0.8924784601365399  0.960589501010335  1.0000
  C   C22       1.0  0.9334687097693614  0.8856592030876173  0.8300007107237879  1.0000
  C   C23       1.0  0.9883401622931942  0.8279990122965473  0.7447113610299687  1.0000
  C   C24       1.0  0.06593538318849769  0.776586410084459  0.7899144687136839  1.0000
  C   C25       1.0  0.08893926035652396  0.7830460584004875  0.9203997633542099  1.0000
  H   H7        1.0  0.015948590842705047  0.21913425470632797  0.8289892776817971  1.0000
  H   H8        1.0  0.018406364485481722  0.13312680856112724  0.38028691540953097  1.0000
  H   H9        1.0  0.016559019522419675  0.7165555082227868  0.3815953568674286  1.0000
  H   H10       1.0  0.017509715580161123  0.8975935495179862  0.7441164037452699  1.0000
  H   H11       1.0  0.01667902871103765  0.46021397125396035  0.623619944773786  1.0000
  H   H12       1.0  0.9951921000968326  0.02574388046153953  0.17920122664728333  1.0000
  H   H13       1.0  0.911735911151971  0.9356380148785424  0.024936519820190968  1.0000
  H   H14       1.0  0.8730896387882786  0.9246900195009424  0.7950332458830283  1.0000
  H   H15       1.0  0.9706149100764783  0.8227937129430041  0.643702198935165  1.0000
  H   H16       1.0  0.10834412157848124  0.7316507598547008  0.7237977092019223  1.0000
  H   H17       1.0  0.14953092952921887  0.7428264146465156  0.9531492032879646  1.0000
  C   C26       1.0  0.01803795158002751  0.41054411401196367  0.18967475815742652  1.0000
  C   C27       1.0  0.04482631560319339  0.27982365924479535  0.19857548926049096  1.0000
  C   C28       1.0  0.059258233236570285  0.21433885018882234  0.08585892605967338  1.0000
  C   C29       1.0  0.04474533229519451  0.2801175998554759  0.9633092877188681  1.0000
  C   C30       1.0  0.017895300538963474  0.41074778775809007  0.9524097470754048  1.0000
  C   C31       1.0  0.004910572342588628  0.4753069509328974  0.06618308133126694  1.0000
  C   C32       1.0  0.08668722326665801  0.07589816357969026  0.09514319508970526  1.0000
  O   O3        1.0  0.06057558786082959  0.0029180658155185664  0.010859815122776785  1.0000
  C   C33       1.0  0.14374433928509744  0.02025325604902495  0.199943256216037  1.0000
  C   C34       1.0  0.13689275346880592  0.8883643456008388  0.2451538107295057  1.0000
  C   C35       1.0  0.1910637703814163  0.8346143600033177  0.34285700181002654  1.0000
  F   F1        1.0  0.18353574436986164  0.7076258028234954  0.386462717932607  1.0000
  C   C36       1.0  0.2529624305201361  0.911614372898102  0.39553652862850536  1.0000
  C   C37       1.0  0.2610339877752088  0.04228561001329244  0.3502642176888451  1.0000
  C   C38       1.0  0.2070310733372508  0.09644566772504515  0.2526326409421693  1.0000
  H   H18       1.0  0.9662402328804586  0.6566287643916047  0.38024166971049206  1.0000
  H   H19       1.0  0.05359467030759624  0.2283463311602583  0.293391245409806  1.0000
  H   H20       1.0  0.05523758177819491  0.22946392260238047  0.8762991213510909  1.0000
  H   H21       1.0  0.9842583421062555  0.5760823836388873  0.05851722423403927  1.0000
  H   H22       1.0  0.08914841681241253  0.8273290969546215  0.20561712713448665  1.0000
  H   H23       1.0  0.2949239778818864  0.8699854406144533  0.471066866617297  1.0000
  H   H24       1.0  0.3094428456958018  0.10156648770444866  0.39044127741700035  1.0000
  H   H25       1.0  0.2153814023732149  0.1973183181422551  0.21742919439698263  1.0000
  Zn  Zn1       1.0  0.9251228007414253  0.4115800501317841  0.5707637046815204  1.0000
  Zn  Zn2       1.0  0.11080236784700621  0.4097113427712016  0.5713201575201288  1.0000
  C   C39       1.0  0.017919386174334074  0.40553577869414786  0.8082348330330315  1.0000
  C   C40       1.0  0.018007810325495466  0.41575723241778767  0.33384916323229574  1.0000
  C   C41       1.0  0.018009586655793892  0.647831188649906  0.5659425291610165  1.0000
  C   C42       1.0  0.017917546166798415  0.17346026285221347  0.5761415356564581  1.0000
  O   O4        1.0  0.08846212157760198  0.41679197226424497  0.38244657977483465  1.0000
  O   O5        1.0  0.08839156990113461  0.40308175340059593  0.7600593771632647  1.0000
  O   O6        1.0  0.08846345778395737  0.5987383711040841  0.5644066251111961  1.0000
  O   O7        1.0  0.0883901703549434  0.22113536446241788  0.5780992342656759  1.0000
  O   O8        1.0  0.9475349348701664  0.6001560290796779  0.5639846277392526  1.0000
  O   O9        1.0  0.9474630473012593  0.4045009716251159  0.7596373110424528  1.0000
  O   O10       1.0  0.9475335993171997  0.41821114481628324  0.38202295224496785  1.0000
  O   O11       1.0  0.9474616480710549  0.2225545277519052  0.5776757041003155  1.0000
