data_image0
_chemical_formula_structural       NC5NC3OH4C6NCH9C6NCH7Zn2C4O8
_chemical_formula_sum              "N4 C26 O9 H20 Zn2"
_cell_length_a       13.84702359539666
_cell_length_b       9.273386996610926
_cell_length_c       9.273390368590327
_cell_angle_alpha    86.07317832945773
_cell_angle_beta     89.97653543286326
_cell_angle_gamma    89.39943260271846

_space_group_name_H-M_alt    "P 1"
_space_group_IT_number       1

loop_
  _space_group_symop_operation_xyz
  'x, y, z'

loop_
  _atom_site_type_symbol
  _atom_site_label
  _atom_site_symmetry_multiplicity
  _atom_site_fract_x
  _atom_site_fract_y
  _atom_site_fract_z
  _atom_site_occupancy
  N   N1        1.0  0.8985676560069538  0.561991143388231  0.4072825490984082  1.0000
  C   C1        1.0  0.8264730019977992  0.553988684681699  0.47034798478766815  1.0000
  C   C2        1.0  0.7366881225554748  0.5440239330427722  0.5488777403097116  1.0000
  C   C3        1.0  0.6490445135568007  0.5536505082636003  0.4730123595271291  1.0000
  C   C4        1.0  0.5612418866967533  0.5441357778993025  0.5479958920064412  1.0000
  C   C5        1.0  0.4713296151132323  0.5540470931861756  0.4698873695402142  1.0000
  N   N2        1.0  0.3990517828393517  0.5620150321772732  0.407094344458095  1.0000
  C   C6        1.0  0.5610776940387777  0.5249657487939109  0.6990702008917269  1.0000
  C   C7        1.0  0.6483411303476215  0.5153301716276975  0.7750036192298615  1.0000
  C   C8        1.0  0.7364595648913242  0.5247835995376847  0.7005048096892936  1.0000
  O   O1        1.0  0.8234434708103311  0.5151315920217392  0.7765696421552413  1.0000
  H   H1        1.0  0.6491762953025442  0.5685019153656212  0.3559729842723063  1.0000
  H   H2        1.0  0.49356923097442396  0.5174771458366942  0.7580856917078873  1.0000
  H   H3        1.0  0.6474308127176284  0.5005082293771362  0.8918115644570678  1.0000
  H   H4        1.0  0.8250612435420149  0.5012596238720475  0.8858901715718641  1.0000
  C   C9        1.0  0.1517839066220872  0.13835676521928475  0.4078955479056481  1.0000
  C   C10       1.0  0.16876419913330087  0.22044799667289872  0.2775730306966733  1.0000
  C   C11       1.0  0.17665164489034124  0.15456022007099962  0.14724587790747878  1.0000
  C   C12       1.0  0.16767835867917213  0.004223623767452888  0.143909110665561  1.0000
  C   C13       1.0  0.15240001143663884  0.9211647473368755  0.2737782986987929  1.0000
  C   C14       1.0  0.14584481044102304  0.985638415045315  0.4064938142007011  1.0000
  N   N3        1.0  0.1747499068724112  0.9332707834424091  0.010891593019651813  1.0000
  C   C15       1.0  0.19086307659041735  0.00967307116051907  0.8702395328445998  1.0000
  H   H5        1.0  0.1714712433840655  0.40301757619329864  0.6445110468915582  1.0000
  H   H6        1.0  0.17369019126990715  0.33707532986795785  0.2758029461759399  1.0000
  H   H7        1.0  0.18884802646089094  0.22212230601996907  0.04934135221512715  1.0000
  H   H8        1.0  0.14784214011269214  0.804739292613463  0.27150634199189194  1.0000
  H   H9        1.0  0.18133888460692105  0.8580094819247586  0.7575196129055295  1.0000
  H   H10       1.0  0.16792182871993022  0.820935103034944  0.013882858560859239  1.0000
  H   H11       1.0  0.1309996163684657  0.08797759954034978  0.8452203812097467  1.0000
  H   H12       1.0  0.2607623192609103  0.06723062666183544  0.8704458147036266  1.0000
  H   H13       1.0  0.19331295169384344  0.9313296482692708  0.7849140845350608  1.0000
  C   C16       1.0  0.14889066364662987  0.5574988306174111  0.9839563208503007  1.0000
  C   C17       1.0  0.23760782862391316  0.5546366005545917  0.057530190588412904  1.0000
  C   C18       1.0  0.32468391207212477  0.5651852251584475  0.9820651806102437  1.0000
  C   C19       1.0  0.32525436659314155  0.5789870153765733  0.8304141069871482  1.0000
  C   C20       1.0  0.23714288299504752  0.5794163198609528  0.7560344390373865  1.0000
  C   C21       1.0  0.14873809621233747  0.5664963940350944  0.8304330031609672  1.0000
  N   N4        1.0  0.4139510355493617  0.5911967939109053  0.749572251901494  1.0000
  C   C22       1.0  0.5092998162020941  0.5913713750643375  0.8165243078088498  1.0000
  H   H14       1.0  0.9969483462560282  0.4881931151979359  0.2699682931174525  1.0000
  H   H15       1.0  0.3912312059313492  0.5638609095470081  0.04316335671648486  1.0000
  H   H16       1.0  0.9244641586061705  0.454406718960092  0.7352119894518068  1.0000
  H   H17       1.0  0.4107505942610741  0.6007577266055548  0.6366817787959369  1.0000
  H   H18       1.0  0.5149186325933477  0.6839161119585848  0.8858373767148171  1.0000
  H   H19       1.0  0.5218024839295474  0.48824876653777366  0.8822444266769374  1.0000
  H   H20       1.0  0.5658179747467336  0.6022803221932334  0.7315944124741001  1.0000
  Zn  Zn1       1.0  0.04299658780565552  0.5619942634185178  0.40723655421353255  1.0000
  Zn  Zn2       1.0  0.25462290760305706  0.5620002328487099  0.4071521212642739  1.0000
  C   C23       1.0  0.14880504585288584  0.5590484220170002  0.670440301467454  1.0000
  C   C24       1.0  0.14881674772384046  0.564947896091303  0.14394851153748456  1.0000
  C   C25       1.0  0.14696350675104708  0.825423113190779  0.4010154109734745  1.0000
  C   C26       1.0  0.15065822674804874  0.29857147245900517  0.41337348176798905  1.0000
  O   O2        1.0  0.229103070445208  0.5674438420507908  0.19761132082725297  1.0000
  O   O3        1.0  0.2291382108615514  0.5565559139751524  0.6167129964338545  1.0000
  O   O4        1.0  0.22765006184537784  0.7716568617647842  0.3991504890843913  1.0000
  O   O5        1.0  0.23059114719479523  0.35234290343056385  0.4151737201232921  1.0000
  O   O6        1.0  0.06702827599623062  0.7716515928361172  0.3992149553757429  1.0000
  O   O7        1.0  0.068516412872349  0.5565523775044563  0.616777383009911  1.0000
  O   O8        1.0  0.06848127318499352  0.5674402368883273  0.19767397466393777  1.0000
  O   O9        1.0  0.06996934998348103  0.35233928909814805  0.41523648203463037  1.0000
