data_image0
_chemical_formula_structural       NC5NC3OH4C9H10C6NCOH5Zn2C4O8
_chemical_formula_sum              "N3 C28 O10 H19 Zn2"
_cell_length_a       13.84702359539666
_cell_length_b       10.297183801781406
_cell_length_c       9.27373355559583
_cell_angle_alpha    86.14735742997276
_cell_angle_beta     89.99675348252173
_cell_angle_gamma    89.99848952151973

_space_group_name_H-M_alt    "P 1"
_space_group_IT_number       1

loop_
  _space_group_symop_operation_xyz
  'x, y, z'

loop_
  _atom_site_type_symbol
  _atom_site_label
  _atom_site_symmetry_multiplicity
  _atom_site_fract_x
  _atom_site_fract_y
  _atom_site_fract_z
  _atom_site_occupancy
  N   N1        1.0  0.9091281972669578  0.40634213202938607  0.4092075260943704  1.0000
  C   C1        1.0  0.8369924141869315  0.39914253681828127  0.47226065740773154  1.0000
  C   C2        1.0  0.7471563203544974  0.3901775198356358  0.5507750913839793  1.0000
  C   C3        1.0  0.6595621875017206  0.3988382885899171  0.47492451220743015  1.0000
  C   C4        1.0  0.5717106592277862  0.39027814357958546  0.549893415069455  1.0000
  C   C5        1.0  0.48184932742231396  0.39919508533584924  0.47180013198157855  1.0000
  N   N2        1.0  0.40961244689057996  0.40636362413109395  0.4090193581823083  1.0000
  C   C6        1.0  0.5714479411553045  0.37303138794648616  0.7009382486099047  1.0000
  C   C7        1.0  0.6586618543658584  0.36436252009834846  0.7768568516300445  1.0000
  C   C8        1.0  0.7468288756373764  0.37286751311170274  0.7023725773779215  1.0000
  O   O1        1.0  0.8337631744696361  0.36418386351434706  0.7784225691771169  1.0000
  H   H1        1.0  0.6597702990875032  0.41219969714353394  0.35790797205368885  1.0000
  H   H2        1.0  0.503900989921595  0.3662940947893642  0.7599422251581912  1.0000
  H   H3        1.0  0.6576753585152507  0.3510276203497764  0.893642007026084  1.0000
  H   H4        1.0  0.8353096512113823  0.35170362962845036  0.887721769458511  1.0000
  C   C9        1.0  0.15937834114382143  0.02487928950221608  0.40931763064141946  1.0000
  C   C10       1.0  0.15654327156198744  0.03327251390522035  0.25765913171620247  1.0000
  C   C11       1.0  0.1550905591317951  0.9209561208088048  0.17996004783701827  1.0000
  C   C12       1.0  0.15653188135929197  0.7980957361165799  0.2570713259821958  1.0000
  C   C13       1.0  0.1593715441290649  0.7878165864044596  0.4089216503678905  1.0000
  C   C14       1.0  0.1607753205244704  0.9016749046326765  0.4840535588299273  1.0000
  C   C15       1.0  0.1520239639944867  0.9394661804562717  0.01593067251414393  1.0000
  C   C16       1.0  0.0954657869122808  0.8399709782836016  0.9357231457257789  1.0000
  C   C17       1.0  0.2054866861153526  0.8402396384229754  0.9311033921599844  1.0000
  H   H5        1.0  0.16047995428344852  0.3491835653079509  0.46775651130081464  1.0000
  H   H6        1.0  0.15544898108347693  0.12793512694297116  0.19911058381667424  1.0000
  H   H7        1.0  0.15546563622146015  0.7099455055114609  0.200148660810608  1.0000
  H   H8        1.0  0.16296215220359356  0.8944719128677854  0.6010612756525459  1.0000
  H   H9        1.0  0.1647220390323727  0.5611857164876735  0.6957241603669688  1.0000
  H   H10       1.0  0.15103919302086766  0.03967184697900738  0.9632087474070873  1.0000
  H   H11       1.0  0.06324879984501064  0.7569663607856717  0.001323256263055625  1.0000
  H   H12       1.0  0.06138223725269998  0.8798563896092911  0.8337673693590659  1.0000
  H   H13       1.0  0.24010148726794503  0.7573990245221977  0.9938980028559065  1.0000
  H   H14       1.0  0.23570551005974583  0.8802796895896076  0.8264462433757502  1.0000
  C   C18       1.0  0.15931971076945906  0.40225510342352355  0.9858947952968743  1.0000
  C   C19       1.0  0.0705597939506637  0.39479526212342847  0.05988350985679958  1.0000
  C   C20       1.0  0.9826780366072373  0.3978628937451769  0.9849654830893022  1.0000
  C   C21       1.0  0.9835304167431237  0.4126129654156392  0.833609772509941  1.0000
  C   C22       1.0  0.0708382383298678  0.41813430611370245  0.7584186175756011  1.0000
  C   C23       1.0  0.15943015404444627  0.4104407512476804  0.8323445379926606  1.0000
  N   N3        1.0  0.893631871909501  0.3933028798105622  0.06501582364156588  1.0000
  C   C24       1.0  0.8066264294518588  0.3334792929648962  0.018297169760663982  1.0000
  O   O2        1.0  0.8061192219246555  0.2647328061080405  0.9109822078661214  1.0000
  H   H15       1.0  0.3868902708242697  0.4924668283730731  0.08207583918281758  1.0000
  H   H16       1.0  0.9168346231076004  0.4212592218498008  0.7730157551268908  1.0000
  H   H17       1.0  0.3134643244824715  0.4657093174850437  0.547151686592914  1.0000
  H   H18       1.0  0.8932857068326188  0.42784328811030486  0.1684170258350517  1.0000
  H   H19       1.0  0.740619777576588  0.3443709483718653  0.0787371812079185  1.0000
  Zn  Zn1       1.0  0.053557140042453044  0.4063449369167013  0.40916153695896396  1.0000
  Zn  Zn2       1.0  0.26518348168431927  0.4063503037495216  0.40907711485126175  1.0000
  C   C25       1.0  0.15940717118260622  0.4037184033344305  0.6723500798494071  1.0000
  C   C26       1.0  0.15933576150105555  0.4089784778279131  0.14588871164441453  1.0000
  C   C27       1.0  0.1593670950476085  0.643549654183569  0.40325336856152205  1.0000
  C   C28       1.0  0.15937576544673937  0.169145666988967  0.41498550060879613  1.0000
  O   O3        1.0  0.23965224207695912  0.4112312730846563  0.19955209672444552  1.0000
  O   O4        1.0  0.23971018716727469  0.4014686973759847  0.6186222059752924  1.0000
  O   O5        1.0  0.23967674274501355  0.5951354799815656  0.40132470743733545  1.0000
  O   O6        1.0  0.2396856142713022  0.21756449872499714  0.4168494872246693  1.0000
  O   O7        1.0  0.07905493523778472  0.5951307419407357  0.40138916460678403  1.0000
  O   O8        1.0  0.0790883796316746  0.40146551932447094  0.6186865854894723  1.0000
  O   O9        1.0  0.07903043437989665  0.4112280330078746  0.19961474349478817  1.0000
  O   O10       1.0  0.07906380658447265  0.21756125040180363  0.41691224205397304  1.0000
