data_image0
_chemical_formula_structural       NC9NC3OH6C6FH3C6BrH3Zn2C4O8
_chemical_formula_sum              "N2 C28 O9 H12 F1 Br1 Zn2"
_cell_length_a       15.78231758774541
_cell_length_b       9.275642734913905
_cell_length_c       10.302972455390004
_cell_angle_alpha    85.47816218969515
_cell_angle_beta     90.08385913268748
_cell_angle_gamma    90.23470761467162

_space_group_name_H-M_alt    "P 1"
_space_group_IT_number       1

loop_
  _space_group_symop_operation_xyz
  'x, y, z'

loop_
  _atom_site_type_symbol
  _atom_site_label
  _atom_site_symmetry_multiplicity
  _atom_site_fract_x
  _atom_site_fract_y
  _atom_site_fract_z
  _atom_site_occupancy
  N   N1        1.0  0.8075675346531802  0.5694547837787545  0.5683739788467257  1.0000
  C   C1        1.0  0.7584726786746535  0.4783222694076119  0.592562791086771  1.0000
  C   C2        1.0  0.6975197566603656  0.365204667313197  0.6225873369464763  1.0000
  C   C3        1.0  0.7163047977903727  0.22311073047243757  0.6602236216683293  1.0000
  C   C4        1.0  0.6391489247598509  0.15424644628368567  0.6785381648609659  1.0000
  C   C5        1.0  0.5780177567378371  0.2594122220535322  0.6507242732392069  1.0000
  C   C6        1.0  0.4848066957988804  0.23996867742983286  0.6559583723747366  1.0000
  C   C7        1.0  0.43179786601463116  0.3591872659010453  0.6242628630939617  1.0000
  C   C8        1.0  0.3434929179573823  0.3432440254576201  0.628561857214923  1.0000
  C   C9        1.0  0.2898090129805591  0.4659313406044821  0.5959359069662649  1.0000
  N   N2        1.0  0.246659950385621  0.5645561131662702  0.5697075651737631  1.0000
  C   C10       1.0  0.3075144166274537  0.2079047563989694  0.6646055661501722  1.0000
  C   C11       1.0  0.359593836168128  0.08893264900851539  0.6962399015013869  1.0000
  C   C12       1.0  0.44771041705572656  0.10443790306308849  0.692057736173387  1.0000
  O   O1        1.0  0.6152459029025501  0.3840473365102852  0.6176637696266325  1.0000
  H   H1        1.0  0.7784692643172028  0.1751915574185536  0.6728650943073251  1.0000
  H   H2        1.0  0.6297174854440213  0.04101549910389223  0.7085447523376207  1.0000
  H   H3        1.0  0.45905375721177905  0.4645052148511713  0.5962097464461  1.0000
  H   H4        1.0  0.23931473331659803  0.194401660257024  0.6682444688933897  1.0000
  H   H5        1.0  0.33161207589869546  0.9843347082149563  0.7241016559393683  1.0000
  H   H6        1.0  0.48621487665975704  0.010203615595590904  0.7171226047210162  1.0000
  C   C13       1.0  0.024497732402185095  0.14349067604226717  0.5695910495507053  1.0000
  C   C14       1.0  0.008098036699862865  0.226986485431095  0.45225752796638213  1.0000
  C   C15       1.0  0.9996905237692908  0.16180325399930087  0.33534876723722395  1.0000
  C   C16       1.0  0.007619333595227036  0.012424035470149043  0.3337076180974934  1.0000
  C   C17       1.0  0.02248769876903812  0.927355821780536  0.44922036936855236  1.0000
  C   C18       1.0  0.029737787364660474  0.9905090485595077  0.5685017259280487  1.0000
  F   F1        1.0  0.9848185921267226  0.24406862830564924  0.2230061857057586  1.0000
  H   H7        1.0  0.11205022394826541  0.22165973764411478  0.8598438802008869  1.0000
  H   H8        1.0  0.00143305571606289  0.9620317044753354  0.24289146884304036  1.0000
  H   H9        1.0  0.0852994212152251  0.6924649506005746  0.7655589767851256  1.0000
  C   C19       1.0  0.027117723769102486  0.5669998545714048  0.1878038450962758  1.0000
  C   C20       1.0  0.050917280107276336  0.42080412253724075  0.19701758645671938  1.0000
  C   C21       1.0  0.06272319134204096  0.3482831455923894  0.08465026456054181  1.0000
  C   C22       1.0  0.05091742256044493  0.42080406465360665  0.96193519636149  1.0000
  C   C23       1.0  0.027117763880149397  0.5669998580709822  0.9502889272874427  1.0000
  C   C24       1.0  0.015332870687336797  0.6393917101063271  0.06388175905856586  1.0000
  Br  Br1       1.0  0.09509451370122685  0.14943168277713048  0.0988369325595999  1.0000
  H   H10       1.0  0.060391321598652015  0.36260627829695863  0.2911688810168511  1.0000
  H   H11       1.0  0.06039165668646614  0.36260632287624395  0.8760879793421656  1.0000
  H   H12       1.0  0.9969776965443556  0.7521434652139329  0.05583771157995554  1.0000
  Zn  Zn1       1.0  0.9342800934384475  0.5680372809171621  0.5687663189915708  1.0000
  Zn  Zn2       1.0  0.1199472902887681  0.5659618451897288  0.5693258529682708  1.0000
  C   C25       1.0  0.027080331403833032  0.5612544600704144  0.8061703192451419  1.0000
  C   C26       1.0  0.027149091060929328  0.5727464630793904  0.33192198390877903  1.0000
  C   C27       1.0  0.028742928297692975  0.8304045984054239  0.5635341749598539  1.0000
  C   C28       1.0  0.025486420092363238  0.3035945927179464  0.574558199447206  1.0000
  O   O2        1.0  0.09761931287822671  0.5738811684747858  0.38050169614948626  1.0000
  O   O3        1.0  0.09752720921858787  0.5585434589866698  0.7580149080230634  1.0000
  O   O4        1.0  0.0988688274059697  0.7758856101777549  0.5620845000306882  1.0000
  O   O5        1.0  0.09627763139902584  0.3565390283088057  0.5764320065952588  1.0000
  O   O6        1.0  0.9579496889690975  0.7774600985078994  0.5616601651668107  1.0000
  O   O7        1.0  0.956608081497329  0.5601196800530626  0.7575905017082754  1.0000
  O   O8        1.0  0.9567001849022961  0.5754573392832174  0.3800757290161722  1.0000
  O   O9        1.0  0.9553585033558218  0.35811518880194626  0.5760061368107758  1.0000
