data_image0
_chemical_formula_structural       NC9NC3OH6C6SCNH4C8NH7Zn2C4O8
_chemical_formula_sum              "N4 C31 O9 H17 S1 Zn2"
_cell_length_a       15.78231758774541
_cell_length_b       10.302215558581764
_cell_length_c       9.274266800404106
_cell_angle_alpha    85.99272178288915
_cell_angle_beta     89.63778846235708
_cell_angle_gamma    89.65080806534476

_space_group_name_H-M_alt    "P 1"
_space_group_IT_number       1

loop_
  _space_group_symop_operation_xyz
  'x, y, z'

loop_
  _atom_site_type_symbol
  _atom_site_label
  _atom_site_symmetry_multiplicity
  _atom_site_fract_x
  _atom_site_fract_y
  _atom_site_fract_z
  _atom_site_occupancy
  N   N1        1.0  0.8054746374177773  0.40219286204037646  0.4128368876200774  1.0000
  C   C1        1.0  0.7568024969987022  0.3203307422566688  0.43955434610218974  1.0000
  C   C2        1.0  0.6963742659542144  0.2187199558442534  0.4727175952336689  1.0000
  C   C3        1.0  0.7158188091470389  0.09107983863294986  0.5142878388103247  1.0000
  C   C4        1.0  0.6389821758000365  0.02922099999128935  0.5345171548504963  1.0000
  C   C5        1.0  0.5773626898984126  0.12368960439804287  0.5037962363171171  1.0000
  C   C6        1.0  0.4842414426985473  0.10622449103835917  0.5095779213726852  1.0000
  C   C7        1.0  0.43067988643089483  0.21331525808717977  0.47456873103653835  1.0000
  C   C8        1.0  0.34244854690714693  0.19899433751657258  0.4793175222511221  1.0000
  C   C9        1.0  0.2881958757087687  0.30920090418006185  0.44328056816325806  1.0000
  N   N2        1.0  0.24458960502972862  0.3977927555468749  0.4143100773579651  1.0000
  C   C10       1.0  0.3070971928703506  0.07742327554257589  0.5191298653859209  1.0000
  C   C11       1.0  0.3597281738904102  0.970553948300221  0.5540715114025521  1.0000
  C   C12       1.0  0.44777317488627405  0.9844814406785616  0.5494517653488555  1.0000
  O   O1        1.0  0.6140126137553564  0.23564644986038874  0.4672797789924468  1.0000
  H   H1        1.0  0.77820594318651  0.04803463097302017  0.5282503751944025  1.0000
  H   H2        1.0  0.6300761987037046  0.9275080382542101  0.5676602900601704  1.0000
  H   H3        1.0  0.45744776995117387  0.3079190652344434  0.4435824279940132  1.0000
  H   H4        1.0  0.2389598630050699  0.06529418411835586  0.5231494887895827  1.0000
  H   H5        1.0  0.332231082860231  0.8765969050505401  0.5848464461699092  1.0000
  H   H6        1.0  0.48671446788144335  0.8998334692381341  0.5771371667528187  1.0000
  C   C13       1.0  0.024952187022321916  0.018721139439415113  0.4135335181031503  1.0000
  C   C14       1.0  0.10966154682772289  0.014106807075046968  0.4591764562747964  1.0000
  C   C15       1.0  0.15181446838010204  0.8947729057004811  0.482346184064397  1.0000
  C   C16       1.0  0.10988121871466644  0.7789302209302998  0.459299250561515  1.0000
  C   C17       1.0  0.02512005265709226  0.7812544793496624  0.41362588175732173  1.0000
  C   C18       1.0  0.983111236280868  0.9016655311793915  0.3910496096450211  1.0000
  S   S1        1.0  0.26004237223320015  0.8903967269200166  0.5400179089421477  1.0000
  C   C19       1.0  0.231238224390116  0.8790990824303605  0.7246411281392127  1.0000
  N   N3        1.0  0.2123287765699876  0.8716931620709641  0.8456773538079119  1.0000
  H   H7        1.0  0.14322008831147826  0.10286455979664888  0.4771758805472688  1.0000
  H   H8        1.0  0.1435903357734235  0.6874052770092474  0.4773829179611943  1.0000
  H   H9        1.0  0.9177798284900235  0.9043747657183482  0.35586817178309227  1.0000
  H   H10       1.0  0.865382292087334  0.5784269045627237  0.32738864450806826  1.0000
  C   C20       1.0  0.02698427451962582  0.3971295215710222  0.9902751866624402  1.0000
  C   C21       1.0  0.9777256475514438  0.3046782445018039  0.07124821826199734  1.0000
  C   C22       1.0  0.9233420616118516  0.22237594960397272  0.0031587690057259766  1.0000
  C   C23       1.0  0.9164047161551214  0.23127017395187477  0.8524386953184178  1.0000
  C   C24       1.0  0.966825851638313  0.3206057645505851  0.7701629387936872  1.0000
  C   C25       1.0  0.02308796812716697  0.4028461238937736  0.8368842137553192  1.0000
  C   C26       1.0  0.8586732292702715  0.14116519379759174  0.7791522939967432  1.0000
  C   C27       1.0  0.9045295910660685  0.0220065368551654  0.7480767522201828  1.0000
  N   N4        1.0  0.9407270671742664  0.9279627858321257  0.7235481839516931  1.0000
  H   H11       1.0  0.12038518869095682  0.6819448533244061  0.07005823221894869  1.0000
  H   H12       1.0  0.9798874157402218  0.29793232262007807  0.18826868390616136  1.0000
  H   H13       1.0  0.8859343948154773  0.1523636866202911  0.06826876879807675  1.0000
  H   H14       1.0  0.9635268030366988  0.32360126888549345  0.6532612318461646  1.0000
  H   H15       1.0  0.08904988549272813  0.5920506584472529  0.5407883877675541  1.0000
  H   H16       1.0  0.8345156563916992  0.1889477933723051  0.6763079373197822  1.0000
  H   H17       1.0  0.8030962315620298  0.11504525593838054  0.8491241946424704  1.0000
  Zn  Zn1       1.0  0.932193688977752  0.40091967442399395  0.4132703353893525  1.0000
  Zn  Zn2       1.0  0.11787046841276355  0.39905542596315685  0.41388841200229254  1.0000
  C   C28       1.0  0.023821443086356798  0.39659322517788914  0.6768563761347521  1.0000
  C   C29       1.0  0.026244741598378866  0.4033834940088418  0.15030251968754138  1.0000
  C   C30       1.0  0.02511041981215299  0.6370807267443488  0.40786420135091417  1.0000
  C   C31       1.0  0.02495570081692787  0.16289443369271384  0.4192947709236119  1.0000
  O   O2        1.0  0.09645991648005431  0.4047692474176567  0.20424371068560232  1.0000
  O   O3        1.0  0.09453064922168308  0.3937915680484565  0.6233838759114734  1.0000
  O   O4        1.0  0.09557055745103678  0.5879882866009001  0.406170788610865  1.0000
  O   O5        1.0  0.09541994539125603  0.21057253805939946  0.42145668969436767  1.0000
  O   O6        1.0  0.9546441486369226  0.5894025629652897  0.40570205747877597  1.0000
  O   O7        1.0  0.9536042411008868  0.39520740380005304  0.6229150681086508  1.0000
  O   O8        1.0  0.9555335163817286  0.40618502622179875  0.20377316978398619  1.0000
  O   O9        1.0  0.9544935447900379  0.21198830830689402  0.42098625686609337  1.0000
