data_image0
_chemical_formula_structural       NC9NC3OH6C6SCNH4C6NO2H3Zn2C4O8
_chemical_formula_sum              "N4 C29 O11 H13 S1 Zn2"
_cell_length_a       15.78231758774541
_cell_length_b       10.302215558581764
_cell_length_c       9.273395971720358
_cell_angle_alpha    84.96984654489938
_cell_angle_beta     89.96902430017013
_cell_angle_gamma    89.65080806534476

_space_group_name_H-M_alt    "P 1"
_space_group_IT_number       1

loop_
  _space_group_symop_operation_xyz
  'x, y, z'

loop_
  _atom_site_type_symbol
  _atom_site_label
  _atom_site_symmetry_multiplicity
  _atom_site_fract_x
  _atom_site_fract_y
  _atom_site_fract_z
  _atom_site_occupancy
  N   N1        1.0  0.799981380105423  0.42784687122933485  0.4104744386524415  1.0000
  C   C1        1.0  0.7514017102541363  0.3455529055187281  0.43723166534219216  1.0000
  C   C2        1.0  0.6910882590072469  0.24340608705559294  0.47044427706473946  1.0000
  C   C3        1.0  0.7106766790598105  0.11509405187796062  0.5120763968142066  1.0000
  C   C4        1.0  0.6339100604689443  0.0529082379837047  0.5323358236390996  1.0000
  C   C5        1.0  0.5721842478079217  0.14787339798717114  0.5015691778570799  1.0000
  C   C6        1.0  0.4790830113325133  0.1303148327318466  0.507359468793029  1.0000
  C   C7        1.0  0.42540028636498756  0.23797146858367554  0.4722981682327203  1.0000
  C   C8        1.0  0.3371853826642882  0.22357379123079132  0.477054027893398  1.0000
  C   C9        1.0  0.28280798562014586  0.3343628388907837  0.440963433783083  1.0000
  N   N2        1.0  0.23910144650667842  0.42342295292797427  0.4119498211930403  1.0000
  C   C10       1.0  0.30197182129879435  0.10135922500153048  0.5169256306141867  1.0000
  C   C11       1.0  0.35472373724418654  0.9939251207044446  0.5519192863171036  1.0000
  C   C12       1.0  0.4427527490492782  0.00792728405187981  0.5472926638975126  1.0000
  O   O1        1.0  0.608707786232483  0.26042047486583986  0.464998366782479  1.0000
  H   H1        1.0  0.7731121381923312  0.07182316165654504  0.5260597160525535  1.0000
  H   H2        1.0  0.6251187935548397  0.9506595693059917  0.565528291500818  1.0000
  H   H3        1.0  0.45206092461573955  0.3330761208531481  0.44126574292395637  1.0000
  H   H4        1.0  0.23384840356735984  0.08916516265218699  0.5209512371175604  1.0000
  H   H5        1.0  0.3273331599265109  0.8994706487701166  0.582740028734792  1.0000
  H   H6        1.0  0.481789862715002  0.9228318214012058  0.5750192742657307  1.0000
  C   C13       1.0  0.019461340785720045  0.04436388868623231  0.41117210605097276  1.0000
  C   C14       1.0  0.10432867326696856  0.039011809617613524  0.4568829824901619  1.0000
  C   C15       1.0  0.14656178649946724  0.9193034058336957  0.48008719778710796  1.0000
  C   C16       1.0  0.10454877015157504  0.8038332386952872  0.45700595955282386  1.0000
  C   C17       1.0  0.019629526096089468  0.8068957356824781  0.41126460718592184  1.0000
  C   C18       1.0  0.9775425720219195  0.9276716976387747  0.3886547309088515  1.0000
  S   S1        1.0  0.2549892953093149  0.9139950538264114  0.5378447654530616  1.0000
  C   C19       1.0  0.22682413840608662  0.8997132637723623  0.7227427912722009  1.0000
  N   N3        1.0  0.20833360350456642  0.8903509821409066  0.843959176058855  1.0000
  H   H7        1.0  0.13794951173093462  0.1274786297992132  0.47490919841432916  1.0000
  H   H8        1.0  0.13832047576055917  0.7120160005758485  0.4751165439977939  1.0000
  H   H9        1.0  0.9120893993732058  0.9309495850925767  0.35342092643702094  1.0000
  H   H10       1.0  0.859593293787402  0.6054620509497918  0.32489900816306  1.0000
  C   C20       1.0  0.020028508322331055  0.42961357971633113  0.9872837661376888  1.0000
  C   C21       1.0  0.9445152235823904  0.4600089938014466  0.05762032775905301  1.0000
  C   C22       1.0  0.8687620596751965  0.4781301372727164  0.9809384801056706  1.0000
  C   C23       1.0  0.8663730471148835  0.4662261635568914  0.8316343769461114  1.0000
  C   C24       1.0  0.9418415432780487  0.4380559113220881  0.7598602552028959  1.0000
  C   C25       1.0  0.019062363768265207  0.42164606956648715  0.8351530070651272  1.0000
  N   N4        1.0  0.7878277916917649  0.4839427518460255  0.7532350116774946  1.0000
  O   O2        1.0  0.7141992812605572  0.5125874470963339  0.8237655908406425  1.0000
  O   O3        1.0  0.785126987564801  0.47327007160173795  0.6202291049244142  1.0000
  H   H11       1.0  0.20540363503337233  0.2822928730312053  0.1043110067609263  1.0000
  H   H12       1.0  0.8117426647163385  0.5002335778429311  0.03913248366483524  1.0000
  H   H13       1.0  0.14545627324430332  0.32624136501096834  0.5641170442173853  1.0000
  Zn  Zn1       1.0  0.926701931851554  0.4265666776077287  0.4109085315968894  1.0000
  Zn  Zn2       1.0  0.11238085048312801  0.42469243890519265  0.4115275281999957  1.0000
  C   C26       1.0  0.019241971493047613  0.4179797722946832  0.674886912968772  1.0000
  C   C27       1.0  0.019842838649580363  0.4332809606186694  0.14754929547969664  1.0000
  C   C28       1.0  0.019599951763866308  0.6628151116289416  0.40549435067550704  1.0000
  C   C29       1.0  0.0194847945877128  0.18844406129901237  0.4169419343389913  1.0000
  O   O4        1.0  0.09024470690862646  0.4337948390458055  0.2015707764681136  1.0000
  O   O5        1.0  0.08976610641510602  0.4160424144936463  0.6213348203885618  1.0000
  O   O6        1.0  0.09005422840973337  0.6137500428537255  0.40379841733681965  1.0000
  O   O7        1.0  0.08995652167975043  0.23608722163028134  0.4191070710668232  1.0000
  O   O8        1.0  0.9491261972918386  0.6151718955237108  0.40332898851123605  1.0000
  O   O9        1.0  0.948838075725167  0.4174658277901011  0.6208653147781218  1.0000
  O   O10       1.0  0.949316678242809  0.4352182234076371  0.2010995351792099  1.0000
  O   O11       1.0  0.9490284928850885  0.23751059568862873  0.41863593801212534  1.0000
