data_image0
_chemical_formula_structural       NC9NC3OH6C6FH5C7F3H5Zn2C4O8
_chemical_formula_sum              "N2 C29 O9 H16 F4 Zn2"
_cell_length_a       15.78231758774541
_cell_length_b       9.275642734913905
_cell_length_c       9.272291681409872
_cell_angle_alpha    85.97357626748611
_cell_angle_beta     90.4979467289142
_cell_angle_gamma    90.23470761467162

_space_group_name_H-M_alt    "P 1"
_space_group_IT_number       1

loop_
  _space_group_symop_operation_xyz
  'x, y, z'

loop_
  _atom_site_type_symbol
  _atom_site_label
  _atom_site_symmetry_multiplicity
  _atom_site_fract_x
  _atom_site_fract_y
  _atom_site_fract_z
  _atom_site_occupancy
  N   N1        1.0  0.8007848469329858  0.5556278265189888  0.41021090654933534  1.0000
  C   C1        1.0  0.7518045915256443  0.4647289329874134  0.4370720485756387  1.0000
  C   C2        1.0  0.6909939183357681  0.35190131452434636  0.47041364396318097  1.0000
  C   C3        1.0  0.7099572708141618  0.21017087715382307  0.512207907328557  1.0000
  C   C4        1.0  0.6328881675303317  0.1414834788292667  0.5325458032517743  1.0000
  C   C5        1.0  0.5716252242133972  0.246380621949944  0.5016590905954408  1.0000
  C   C6        1.0  0.47843896113324463  0.22698762940057926  0.5074714421430901  1.0000
  C   C7        1.0  0.4252799659158392  0.34590009571022423  0.4722742787628458  1.0000
  C   C8        1.0  0.3369953854226073  0.3299983758923618  0.4770482168341912  1.0000
  C   C9        1.0  0.2831569068149321  0.4523705824752678  0.44081781929853037  1.0000
  N   N2        1.0  0.2398835808654808  0.550742035974954  0.4116918247266894  1.0000
  C   C10       1.0  0.3011876502134201  0.1950072248586472  0.5170739599445391  1.0000
  C   C11       1.0  0.3534169453603999  0.07634064879856783  0.552203191026416  1.0000
  C   C12       1.0  0.44151371218972174  0.09180551058561531  0.5475589887506669  1.0000
  O   O1        1.0  0.6086967379415915  0.37069643083130016  0.4649461311418843  1.0000
  H   H1        1.0  0.7721816294915721  0.16237379820782571  0.5262459836345752  1.0000
  H   H2        1.0  0.6235988919565661  0.028542341834829614  0.5658674562513688  1.0000
  H   H3        1.0  0.45240294842944195  0.45094710152355133  0.44112191199589995  1.0000
  H   H4        1.0  0.2330052071179465  0.1815392740353532  0.5211148811123691  1.0000
  H   H5        1.0  0.3255671871479971  0.9720118029237265  0.5831430542835963  1.0000
  H   H6        1.0  0.48013692290164905  0.997813305101128  0.5753929719676631  1.0000
  C   C13       1.0  0.01772081086002662  0.1296754735175774  0.41156243669935777  1.0000
  C   C14       1.0  0.0007652181397277422  0.2120380500899346  0.2812661511089021  1.0000
  C   C15       1.0  0.9918038206023767  0.14572568827491916  0.15144155307154206  1.0000
  C   C16       1.0  0.9997248550722128  0.996330619168398  0.14961909318011846  1.0000
  C   C17       1.0  0.015140490907492135  0.912378052897303  0.2778934535310662  1.0000
  C   C18       1.0  0.022955704878338406  0.9766833251089961  0.4103527668631374  1.0000
  F   F1        1.0  0.9763996377734311  0.22690603335552328  0.02668759623514672  1.0000
  H   H7        1.0  0.10664844806643553  0.21064786044644956  0.7338817978263084  1.0000
  H   H8        1.0  0.996431234086622  0.3286955174153827  0.2794064649626018  1.0000
  H   H9        1.0  0.9931083128843234  0.945061165939367  0.04876976419292278  1.0000
  H   H10       1.0  0.01894987535713422  0.7961410920858113  0.2739440984786299  1.0000
  H   H11       1.0  0.07945094693091564  0.6805424491822618  0.6291804939154746  1.0000
  C   C19       1.0  0.018531989488758116  0.5494972677156698  0.9875961740774185  1.0000
  C   C20       1.0  0.07495377103690859  0.4580985596837698  0.06813735428789558  1.0000
  C   C21       1.0  0.13605942545118854  0.37957159549837827  0.9996592110147731  1.0000
  C   C22       1.0  0.14320617577218248  0.3920663265297377  0.8487727555190938  1.0000
  C   C23       1.0  0.08506664190108588  0.47870595408435745  0.7670625076572155  1.0000
  C   C24       1.0  0.02214449380507498  0.5568615747922049  0.8343190098872877  1.0000
  C   C25       1.0  0.20771381306727277  0.30399972783649193  0.7745315413977698  1.0000
  F   F2        1.0  0.27850649960221396  0.2788592063202786  0.8617247242539379  1.0000
  F   F3        1.0  0.2335194334295193  0.37589015589164426  0.6464415680545791  1.0000
  F   F4        1.0  0.17199369658791686  0.1729675462751321  0.7446424423115325  1.0000
  H   H12       1.0  0.9010195639926953  0.8422530660065806  0.06686821283877474  1.0000
  H   H13       1.0  0.07294503999734192  0.4495100545813538  0.18518974334719718  1.0000
  H   H14       1.0  0.1783131206095011  0.3098590457036836  0.06511538159462504  1.0000
  H   H15       1.0  0.08750606380603315  0.4825259453905045  0.6500773675939371  1.0000
  H   H16       1.0  0.8309879972603411  0.6971549266887354  0.7201318077409371  1.0000
  Zn  Zn1       1.0  0.9274992645281966  0.5542141129643344  0.41064659161930606  1.0000
  Zn  Zn2       1.0  0.11316911231121594  0.5521440813384377  0.4112679417487594  1.0000
  C   C26       1.0  0.02142426355090586  0.5497241918807242  0.6742784932248986  1.0000
  C   C27       1.0  0.019246152647618406  0.5566358007320631  0.147636185831296  1.0000
  C   C28       1.0  0.021937310791433132  0.8165308972610823  0.40483641117128255  1.0000
  C   C29       1.0  0.018733031669964765  0.2898273640134488  0.41707834700994995  1.0000
  O   O2        1.0  0.08994653304878941  0.558239699614388  0.2015828838809952  1.0000
  O   O3        1.0  0.09164299301439355  0.5465480953020969  0.6208029720899724  1.0000
  O   O4        1.0  0.09205634170075626  0.761997907755852  0.40322657916391225  1.0000
  O   O5        1.0  0.08953312060845636  0.3427898972436121  0.4191591684837066  1.0000
  O   O6        1.0  0.9511351928709264  0.7635682977670641  0.40275536466473727  1.0000
  O   O7        1.0  0.9507218545616609  0.5481202173594686  0.6203316782461383  1.0000
  O   O8        1.0  0.949025386946616  0.5598117563390721  0.20110985678264348  1.0000
  O   O9        1.0  0.9486119749002241  0.3443619445932221  0.4186862494890826  1.0000
