data_image0
_chemical_formula_structural       NC9NC3OH6C7H8C9H7Zn2C4O8
_chemical_formula_sum              "N2 C32 O9 H21 Zn2"
_cell_length_a       15.78231758774541
_cell_length_b       9.274341958901593
_cell_length_c       9.275155815604963
_cell_angle_alpha    86.02443870129014
_cell_angle_beta     90.4446892459172
_cell_angle_gamma    89.0114341261544

_space_group_name_H-M_alt    "P 1"
_space_group_IT_number       1

loop_
  _space_group_symop_operation_xyz
  'x, y, z'

loop_
  _atom_site_type_symbol
  _atom_site_label
  _atom_site_symmetry_multiplicity
  _atom_site_fract_x
  _atom_site_fract_y
  _atom_site_fract_z
  _atom_site_occupancy
  N   N1        1.0  0.7821363844748283  0.5561763581339523  0.41200354935200645  1.0000
  C   C1        1.0  0.7342817756319162  0.4652538415788168  0.4387802539784133  1.0000
  C   C2        1.0  0.6748683031872996  0.3523969011525221  0.47201704191152144  1.0000
  C   C3        1.0  0.6955868225994928  0.21062964175308196  0.5136796766965361  1.0000
  C   C4        1.0  0.6193682878036955  0.1419243876278633  0.5339537554047726  1.0000
  C   C5        1.0  0.5568062901138747  0.24684877750329925  0.5031644492015619  1.0000
  C   C6        1.0  0.4638601357210916  0.2274507346389316  0.508958761193747  1.0000
  C   C7        1.0  0.40922861934103355  0.3463941115913378  0.4738720752518757  1.0000
  C   C8        1.0  0.32114091701711756  0.33048824963693724  0.47863121893315247  1.0000
  C   C9        1.0  0.26578707946567387  0.45289226737462457  0.4425145159832566  1.0000
  N   N2        1.0  0.22129560136793322  0.5512892931182414  0.41347991761898717  1.0000
  C   C10       1.0  0.28700477130614976  0.1954619995342062  0.5185315251075426  1.0000
  C   C11       1.0  0.3407035400569085  0.07676457613019429  0.5535505057075725  1.0000
  C   C12       1.0  0.4286088381992809  0.09223346644014475  0.5489206918202625  1.0000
  O   O1        1.0  0.5923383262944332  0.3711968909317058  0.46656696154527116  1.0000
  H   H1        1.0  0.7584031234438582  0.162820152194312  0.5276733800742941  1.0000
  H   H2        1.0  0.6114776478713725  0.028953905996206952  0.5671705119526635  1.0000
  H   H3        1.0  0.43505081225521386  0.4514684313628603  0.44281732223688075  1.0000
  H   H4        1.0  0.21898907532978054  0.18199054083273403  0.5225599169033756  1.0000
  H   H5        1.0  0.31414567826366524  0.9724086029704363  0.5843934224098608  1.0000
  H   H6        1.0  0.46839596950215967  0.998216826535571  0.576667346141257  1.0000
  C   C13       1.0  0.0044149663813428655  0.13012920201682188  0.4129977057559535  1.0000
  C   C14       1.0  0.013954880128069556  0.21223110773825837  0.2810665112120616  1.0000
  C   C15       1.0  0.015069364572718456  0.14613974581398192  0.15050603430450438  1.0000
  C   C16       1.0  0.005740693003582381  0.9965982909304681  0.14873408688586154  1.0000
  C   C17       1.0  0.9988366153245126  0.9128499886637877  0.27960769964945514  1.0000
  C   C18       1.0  0.9990252003238057  0.9773253701421832  0.41249827330938715  1.0000
  C   C19       1.0  0.008813855935107865  0.9253639554224845  0.008436676024398347  1.0000
  H   H7        1.0  0.9351118631149166  0.2119346767527899  0.7466786539633059  1.0000
  H   H8        1.0  0.01874843864070841  0.3287641576992535  0.27860535809982623  1.0000
  H   H9        1.0  0.022313424371958032  0.2120734394746333  0.05047093768022991  1.0000
  H   H10       1.0  0.9952473536934169  0.7963701414280994  0.2777556517447257  1.0000
  H   H11       1.0  0.9557435308984061  0.682166143476293  0.6390497099681371  1.0000
  H   H12       1.0  0.07536765042081717  0.8948729768444023  0.9850519045809679  1.0000
  H   H13       1.0  0.9837783366250157  0.9996850142273708  0.9184103783359578  1.0000
  H   H14       1.0  0.9697396279674041  0.8266764279927782  0.014070215983976729  1.0000
  C   C20       1.0  0.00019066571466619275  0.5500983822658287  0.9895136679519565  1.0000
  C   C21       1.0  0.9334525127542505  0.6211242111064708  0.057064245079933906  1.0000
  C   C22       1.0  0.8723292491721522  0.7016738191177854  0.9755286108771961  1.0000
  C   C23       1.0  0.8768093903797479  0.7128827041593586  0.8249554772576326  1.0000
  C   C24       1.0  0.9418472220984272  0.6411008194533412  0.7556912596112402  1.0000
  C   C25       1.0  0.0032495035962669715  0.5573561620657743  0.8359822333022597  1.0000
  C   C26       1.0  0.813951772715235  0.7968214776113041  0.7410994793812682  1.0000
  C   C27       1.0  0.7613198184938994  0.8671087071957213  0.6708548922601647  1.0000
  C   C28       1.0  0.6974604014676461  0.9523903698459195  0.5856134881034754  1.0000
  H   H15       1.0  0.19761965326518927  0.4315258712242156  0.103201351890432  1.0000
  H   H16       1.0  0.9296708685095377  0.617167920636206  0.1738453420990924  1.0000
  H   H17       1.0  0.8219780787904365  0.7564484140171048  0.03014156705352877  1.0000
  H   H18       1.0  0.13501925694963446  0.4723590353197064  0.562890288178469  1.0000
  H   H19       1.0  0.7146537765946802  0.9563433365363562  0.4696699454788748  1.0000
  H   H20       1.0  0.6346748461417991  0.9017251977046155  0.6004578841516883  1.0000
  H   H21       1.0  0.6946072095659097  0.06379923091152273  0.6220453377449799  1.0000
  Zn  Zn1       1.0  0.9088682990285857  0.5547622748920096  0.41243791568811283  1.0000
  Zn  Zn2       1.0  0.09456377579701164  0.5526917040702948  0.4130573399665953  1.0000
  C   C29       1.0  0.002705999236164659  0.5502377048621172  0.6759849662452779  1.0000
  C   C30       1.0  0.000728092310296803  0.5572180727911227  0.14951043655977347  1.0000
  C   C31       1.0  1.888077907175347e-05  0.8171380777602486  0.40684934995013355  1.0000
  C   C32       1.0  0.003415158705909467  0.2903159681599976  0.4186461305047164  1.0000
  O   O2        1.0  0.07137896329519178  0.5588154419403557  0.20344188568878185  1.0000
  O   O3        1.0  0.07299370384151449  0.5470677285896979  0.622523231567111  1.0000
  O   O4        1.0  0.07082287714409219  0.7625931785629467  0.4051943131764961  1.0000
  O   O5        1.0  0.07354972617117084  0.3432900020661531  0.4207706957978161  1.0000
  O   O6        1.0  0.9298822852856367  0.7641639776042408  0.4047245596379312  1.0000
  O   O7        1.0  0.9320531006757488  0.5486402600720752  0.6220534001597866  1.0000
  O   O8        1.0  0.9304383542438005  0.5603879082967735  0.20297032150530758  1.0000
  O   O9        1.0  0.9326091175724324  0.3448624590316145  0.4202992396769618  1.0000
