data_image0
_chemical_formula_structural       NC5NC3F3CH3C9H8C9H10Zn2C4O8
_chemical_formula_sum              "N2 C31 F3 H21 Zn2 O8"
_cell_length_a       13.85151926108384
_cell_length_b       9.275152443626249
_cell_length_c       10.29718717394978
_cell_angle_alpha    85.37052444745348
_cell_angle_beta     89.97408904731064
_cell_angle_gamma    90.57354708821606

_space_group_name_H-M_alt    "P 1"
_space_group_IT_number       1

loop_
  _space_group_symop_operation_xyz
  'x, y, z'

loop_
  _atom_site_type_symbol
  _atom_site_label
  _atom_site_symmetry_multiplicity
  _atom_site_fract_x
  _atom_site_fract_y
  _atom_site_fract_z
  _atom_site_occupancy
  N   N1        1.0  0.9201465577202026  0.5785969022731592  0.562268987532573  1.0000
  C   C1        1.0  0.8477372812072429  0.5695217662110186  0.6185848648073791  1.0000
  C   C2        1.0  0.7576544412208115  0.5582310524736606  0.6886498723587022  1.0000
  C   C3        1.0  0.6702130380721528  0.5674461265251778  0.6205671272868187  1.0000
  C   C4        1.0  0.5826024516348408  0.5582310393213505  0.6886498543251758  1.0000
  C   C5        1.0  0.4927180291678457  0.5695217823774497  0.6185849495198403  1.0000
  N   N2        1.0  0.42046837182099717  0.5785968643852328  0.5622690826722168  1.0000
  C   C6        1.0  0.5824172600550174  0.5388026089241074  0.8249770603038955  1.0000
  C   C7        1.0  0.6698459651076312  0.5263968649359814  0.8942069848459622  1.0000
  C   C8        1.0  0.6696922913070285  0.5108348024233664  0.04115104164193272  1.0000
  F   F1        1.0  0.75010939759514  0.43600251123206807  0.08788111833816581  1.0000
  F   F2        1.0  0.5882405826992227  0.436002480635026  0.08788120790795007  1.0000
  F   F3        1.0  0.6705874353211442  0.646698799788338  0.08733252348918064  1.0000
  C   C9        1.0  0.7574875862512368  0.5388025136426448  0.8249770782764001  1.0000
  H   H1        1.0  0.6703504099427875  0.5826485579221397  0.5150172713467929  1.0000
  H   H2        1.0  0.5142418728862229  0.5336300359440984  0.8769425152792067  1.0000
  H   H3        1.0  0.825558625875323  0.533629955014157  0.8769424785492874  1.0000
  C   C10       1.0  0.16746371633295598  0.15496478626246435  0.5635951885837691  1.0000
  C   C11       1.0  0.13267405390143905  0.23768909767086677  0.4532389798489375  1.0000
  C   C12       1.0  0.10685901649442789  0.17223238063273993  0.3408166285452443  1.0000
  C   C13       1.0  0.1154284507312977  0.02288985447349879  0.33652455661090963  1.0000
  C   C14       1.0  0.14833057601872263  0.9384772687429567  0.44594811225093545  1.0000
  C   C15       1.0  0.17316036891577902  0.0022179437181066844  0.5609540719442263  1.0000
  C   C16       1.0  0.08931148168026538  0.9557244276639758  0.22010414147900037  1.0000
  C   C17       1.0  0.06744462601268908  0.8994557446708193  0.12262029723296686  1.0000
  C   C18       1.0  0.04091351969233514  0.8311716508154555  0.0043407489792231  1.0000
  H   H4        1.0  0.3060985538520462  0.23665170324107931  0.8230201338390359  1.0000
  H   H5        1.0  0.1275886986992112  0.35420652785707585  0.4528303764321284  1.0000
  H   H6        1.0  0.08107540310281403  0.23846064243710963  0.256686968817035  1.0000
  H   H7        1.0  0.15239649294817362  0.8221667432753529  0.4423243905453993  1.0000
  H   H8        1.0  0.26340331982752857  0.7069428039495429  0.7383920240672541  1.0000
  H   H9        1.0  0.05855822851736049  0.7144514807103901  0.016476181923912536  1.0000
  H   H10       1.0  0.9623434525899178  0.8437517857362756  0.986557564459559  1.0000
  H   H11       1.0  0.08171163180560395  0.8835086870570664  0.9202585287276327  1.0000
  C   C19       1.0  0.17043931801589385  0.5785392014941448  0.18082165589257326  1.0000
  C   C20       1.0  0.07286959593616849  0.6181631740313711  0.17721621936938137  1.0000
  C   C21       1.0  0.022881749903151737  0.6384634611184224  0.05875264495351562  1.0000
  C   C22       1.0  0.07249136402595235  0.6183162226345779  0.9419930171618582  1.0000
  C   C23       1.0  0.17018476912544284  0.5786435222278787  0.9437276403666002  1.0000
  C   C24       1.0  0.21852076251711583  0.5590126677316711  0.06353013118798967  1.0000
  C   C25       1.0  0.9173530610228937  0.681319324246421  0.06428527857944943  1.0000
  C   C26       1.0  0.8493749597057163  0.6232950977307725  0.9641943021661201  1.0000
  C   C27       1.0  0.8791527666083984  0.7824475217278413  0.9525986897959813  1.0000
  H   H12       1.0  0.20803874798368271  0.5632839058260126  0.5097483158339977  1.0000
  H   H13       1.0  0.035202406709426315  0.6334605628431313  0.26724668014169217  1.0000
  H   H14       1.0  0.03586936745912194  0.6331854265428627  0.8493395626689431  1.0000
  H   H15       1.0  0.29379765825109483  0.5284412229412292  0.06558445619675557  1.0000
  H   H16       1.0  0.3546963169734891  0.5036945025007487  0.7397887641290373  1.0000
  H   H17       1.0  0.883434570431676  0.6950951431182113  0.1603196151610844  1.0000
  H   H18       1.0  0.881631661102675  0.5581823734310232  0.8898722945829562  1.0000
  H   H19       1.0  0.7742108227345446  0.6037754098437451  0.9993737210146216  1.0000
  H   H20       1.0  0.929498329705038  0.8140110120485955  0.8712339107099565  1.0000
  H   H21       1.0  0.8213915884618856  0.855945852796816  0.9809985653214657  1.0000
  Zn  Zn1       1.0  0.06452859750897932  0.5785930411469857  0.5622765141768826  1.0000
  Zn  Zn2       1.0  0.2760862319273649  0.5785889602765466  0.5622721839195073  1.0000
  C   C28       1.0  0.17019208028982588  0.5728767561439763  0.7995399855158469  1.0000
  C   C29       1.0  0.17042507154525288  0.5843070654633464  0.3250088343537898  1.0000
  C   C30       1.0  0.17208033202111914  0.842068326214273  0.5562770130489201  1.0000
  C   C31       1.0  0.16853673594746463  0.31511376218905635  0.5682718814789205  1.0000
  O   O1        1.0  0.25070526770329776  0.5862349710152177  0.37339774492007005  1.0000
  O   O2        1.0  0.2504792263523288  0.5709446649596874  0.7511474178484292  1.0000
  O   O3        1.0  0.2520029307744025  0.7883202623890226  0.5547108418017974  1.0000
  O   O4        1.0  0.24918149119281874  0.36885938389372197  0.5698342235398761  1.0000
  O   O5        1.0  0.09143326604930048  0.7883226175327731  0.5547144745511539  1.0000
  O   O6        1.0  0.08990957329949702  0.5709487533103927  0.751150975934223  1.0000
  O   O7        1.0  0.09013561489777412  0.586239008881207  0.37339974141765997  1.0000
  O   O8        1.0  0.08861183828147515  0.3688634114548335  0.5698363174589327  1.0000
