data_image0
_chemical_formula_structural       La8H16C56N16O48
_chemical_formula_sum              "La8 H16 C56 N16 O48"
_cell_length_a       11.0417
_cell_length_b       12.135
_cell_length_c       19.6509
_cell_angle_alpha    90.0
_cell_angle_beta     90.0
_cell_angle_gamma    90.0

_space_group_name_H-M_alt    "P 1"
_space_group_IT_number       1

loop_
  _space_group_symop_operation_xyz
  'x, y, z'

loop_
  _atom_site_type_symbol
  _atom_site_label
  _atom_site_symmetry_multiplicity
  _atom_site_fract_x
  _atom_site_fract_y
  _atom_site_fract_z
  _atom_site_occupancy
  La  La1       1.0  0.63583  0.15959  0.12136  1.0000
  La  La2       1.0  0.11641  0.98193  0.33513  1.0000
  La  La3       1.0  0.36417  0.84041  0.6213600000000002  1.0000
  La  La4       1.0  0.8835899999999999  0.01807  0.8351300000000003  1.0000
  La  La5       1.0  0.86417  0.65959  0.12136  1.0000
  La  La6       1.0  0.38359  0.4819300000000001  0.33513  1.0000
  La  La7       1.0  0.13583  0.34041  0.6213600000000002  1.0000
  La  La8       1.0  0.61641  0.51807  0.8351300000000003  1.0000
  H   H1        1.0  0.8449999999999998  0.0125  0.23220000000000002  1.0000
  H   H2        1.0  0.7337  0.2678  0.3880000000000001  1.0000
  H   H3        1.0  0.37029999999999996  0.0998  0.23160000000000003  1.0000
  H   H4        1.0  0.5076  0.7474  0.2242  1.0000
  H   H5        1.0  0.155  0.9875  0.7322  1.0000
  H   H6        1.0  0.2663  0.7322  0.8880000000000002  1.0000
  H   H7        1.0  0.6296999999999999  0.9001999999999999  0.7316  1.0000
  H   H8        1.0  0.4923999999999999  0.2526  0.7242000000000002  1.0000
  H   H9        1.0  0.655  0.5125  0.23220000000000002  1.0000
  H   H10       1.0  0.7663  0.7678  0.3880000000000001  1.0000
  H   H11       1.0  0.12969999999999998  0.5998  0.23160000000000003  1.0000
  H   H12       1.0  0.9924  0.2474  0.2242  1.0000
  H   H13       1.0  0.345  0.4875  0.7322  1.0000
  H   H14       1.0  0.2337  0.2322  0.8880000000000002  1.0000
  H   H15       1.0  0.8702999999999999  0.4002  0.7316  1.0000
  H   H16       1.0  0.0076  0.7526  0.7242000000000002  1.0000
  C   C1        1.0  0.8237  0.0673  0.26300000000000007  1.0000
  C   C2        1.0  0.8624999999999999  0.1576  0.3627000000000001  1.0000
  C   C3        1.0  0.7586999999999999  0.21799999999999997  0.3549  1.0000
  C   C4        1.0  0.6927  0.2022  0.2963  1.0000
  C   C5        1.0  0.5865  0.2758  0.2775  1.0000
  C   C6        1.0  0.9472999999999999  0.176  0.4223  1.0000
  C   C7        1.0  0.39829999999999993  0.027500000000000004  0.23060000000000003  1.0000
  C   C8        1.0  0.3734  0.8499  0.2606  1.0000
  C   C9        1.0  0.4804  0.8198000000000001  0.22640000000000005  1.0000
  C   C10       1.0  0.5413  0.9059  0.1965  1.0000
  C   C11       1.0  0.6613  0.8846  0.15810000000000002  1.0000
  C   C12       1.0  0.2958  0.761  0.2938  1.0000
  C   C13       1.0  0.17799999999999996  0.8872  0.49120000000000014  1.0000
  C   C14       1.0  0.2992  0.9384  0.4680000000000001  1.0000
  C   C15       1.0  0.1763  0.9327  0.763  1.0000
  C   C16       1.0  0.1375  0.8424  0.8627  1.0000
  C   C17       1.0  0.2413  0.782  0.8549  1.0000
  C   C18       1.0  0.3073  0.7978  0.7963000000000002  1.0000
  C   C19       1.0  0.4134999999999999  0.7242  0.7775  1.0000
  C   C20       1.0  0.05269999999999999  0.8239999999999998  0.9223000000000001  1.0000
  C   C21       1.0  0.6017  0.9725  0.7306  1.0000
  C   C22       1.0  0.6266  0.1501  0.7606  1.0000
  C   C23       1.0  0.5196  0.1802  0.7264000000000003  1.0000
  C   C24       1.0  0.45869999999999994  0.0941  0.6965  1.0000
  C   C25       1.0  0.33869999999999995  0.1154  0.6581000000000001  1.0000
  C   C26       1.0  0.7042  0.23899999999999996  0.7938000000000001  1.0000
  C   C27       1.0  0.822  0.1128  0.9912000000000001  1.0000
  C   C28       1.0  0.7007999999999999  0.061599999999999995  0.968  1.0000
  C   C29       1.0  0.6763  0.5673  0.26300000000000007  1.0000
  C   C30       1.0  0.6375  0.6576  0.3627000000000001  1.0000
  C   C31       1.0  0.7412999999999998  0.718  0.3549  1.0000
  C   C32       1.0  0.8072999999999999  0.7022  0.2963  1.0000
  C   C33       1.0  0.9134999999999998  0.7758  0.2775  1.0000
  C   C34       1.0  0.5527  0.676  0.4223  1.0000
  C   C35       1.0  0.10169999999999998  0.5275  0.23060000000000003  1.0000
  C   C36       1.0  0.1266  0.3499  0.2606  1.0000
  C   C37       1.0  0.0196  0.3198  0.22640000000000005  1.0000
  C   C38       1.0  0.9586999999999999  0.4058999999999999  0.1965  1.0000
  C   C39       1.0  0.8387  0.3846  0.15810000000000002  1.0000
  C   C40       1.0  0.2042  0.261  0.2938  1.0000
  C   C41       1.0  0.322  0.38720000000000004  0.49120000000000014  1.0000
  C   C42       1.0  0.2008  0.4384  0.4680000000000001  1.0000
  C   C43       1.0  0.3237  0.4327  0.763  1.0000
  C   C44       1.0  0.3625  0.3424  0.8627  1.0000
  C   C45       1.0  0.2587  0.282  0.8549  1.0000
  C   C46       1.0  0.1927  0.2978  0.7963000000000002  1.0000
  C   C47       1.0  0.0865  0.2242  0.7775  1.0000
  C   C48       1.0  0.4472999999999999  0.324  0.9223000000000001  1.0000
  C   C49       1.0  0.8982999999999999  0.47250000000000003  0.7306  1.0000
  C   C50       1.0  0.8734  0.6501  0.7606  1.0000
  C   C51       1.0  0.9803999999999998  0.6802  0.7264000000000003  1.0000
  C   C52       1.0  0.041299999999999996  0.5941  0.6965  1.0000
  C   C53       1.0  0.1613  0.6154  0.6581000000000001  1.0000
  C   C54       1.0  0.7958  0.739  0.7938000000000001  1.0000
  C   C55       1.0  0.678  0.6128  0.9912000000000001  1.0000
  C   C56       1.0  0.7991999999999999  0.5616  0.968  1.0000
  N   N1        1.0  0.7250999999999999  0.1264  0.24970000000000006  1.0000
  N   N2        1.0  0.8934  0.0808  0.317  1.0000
  N   N3        1.0  0.49999999999999983  0.0089  0.19630000000000006  1.0000
  N   N4        1.0  0.33279999999999993  0.9531  0.26360000000000006  1.0000
  N   N5        1.0  0.2749  0.8736  0.7497  1.0000
  N   N6        1.0  0.1066  0.9192  0.817  1.0000
  N   N7        1.0  0.49999999999999983  0.9911  0.6963  1.0000
  N   N8        1.0  0.6672  0.04689999999999999  0.7636000000000002  1.0000
  N   N9        1.0  0.7748999999999999  0.6264  0.24970000000000006  1.0000
  N   N10       1.0  0.6066  0.5808  0.317  1.0000
  N   N11       1.0  0.0  0.5089  0.19630000000000006  1.0000
  N   N12       1.0  0.1672  0.4531  0.26360000000000006  1.0000
  N   N13       1.0  0.2251  0.3736  0.7497  1.0000
  N   N14       1.0  0.39339999999999997  0.4192  0.817  1.0000
  N   N15       1.0  0.0  0.4911  0.6963  1.0000
  N   N16       1.0  0.8328  0.5469  0.7636000000000002  1.0000
  O   O1        1.0  0.5430999999999999  0.2639  0.21900000000000003  1.0000
  O   O2        1.0  0.553  0.3437  0.3217  1.0000
  O   O3        1.0  0.0385  0.1155  0.42610000000000003  1.0000
  O   O4        1.0  0.9172999999999999  0.24929999999999997  0.4631000000000001  1.0000
  O   O5        1.0  0.7097999999999999  0.9655  0.1286  1.0000
  O   O6        1.0  0.7027  0.7897  0.1627  1.0000
  O   O7        1.0  0.2008  0.7918  0.3222  1.0000
  O   O8        1.0  0.3329  0.6628  0.2894  1.0000
  O   O9        1.0  0.0912  0.8853  0.4483  1.0000
  O   O10       1.0  0.1737  0.8502  0.5505  1.0000
  O   O11       1.0  0.2959  0.9943  0.4131  1.0000
  O   O12       1.0  0.38729999999999987  0.9246  0.5045  1.0000
  O   O13       1.0  0.4569  0.7361  0.719  1.0000
  O   O14       1.0  0.44699999999999995  0.6563  0.8217  1.0000
  O   O15       1.0  0.9614999999999999  0.8844999999999998  0.9261000000000001  1.0000
  O   O16       1.0  0.0827  0.7507  0.9631  1.0000
  O   O17       1.0  0.2902  0.0345  0.6286000000000002  1.0000
  O   O18       1.0  0.2973  0.21029999999999996  0.6627000000000002  1.0000
  O   O19       1.0  0.7991999999999999  0.2082  0.8222  1.0000
  O   O20       1.0  0.6670999999999999  0.3372  0.7894  1.0000
  O   O21       1.0  0.9088  0.1147  0.9483000000000001  1.0000
  O   O22       1.0  0.8262999999999999  0.1498  0.0505  1.0000
  O   O23       1.0  0.7041  0.005699999999999999  0.9131  1.0000
  O   O24       1.0  0.6127  0.0754  0.0045  1.0000
  O   O25       1.0  0.9568999999999999  0.7639  0.21900000000000003  1.0000
  O   O26       1.0  0.9469999999999998  0.8437  0.3217  1.0000
  O   O27       1.0  0.46149999999999997  0.6155  0.42610000000000003  1.0000
  O   O28       1.0  0.5826999999999999  0.7493  0.4631000000000001  1.0000
  O   O29       1.0  0.7901999999999999  0.46549999999999997  0.1286  1.0000
  O   O30       1.0  0.7972999999999998  0.2897  0.1627  1.0000
  O   O31       1.0  0.2992  0.2918  0.3222  1.0000
  O   O32       1.0  0.1671  0.1628  0.2894  1.0000
  O   O33       1.0  0.4088  0.3852999999999999  0.4483  1.0000
  O   O34       1.0  0.3263  0.3502  0.5505  1.0000
  O   O35       1.0  0.20409999999999998  0.49429999999999996  0.4131  1.0000
  O   O36       1.0  0.1127  0.4245999999999999  0.5045  1.0000
  O   O37       1.0  0.04309999999999999  0.23609999999999998  0.719  1.0000
  O   O38       1.0  0.05299999999999999  0.1563  0.8217  1.0000
  O   O39       1.0  0.5385  0.3845  0.9261000000000001  1.0000
  O   O40       1.0  0.4173  0.2507  0.9631  1.0000
  O   O41       1.0  0.2098  0.5345  0.6286000000000002  1.0000
  O   O42       1.0  0.20269999999999996  0.7102999999999999  0.6627000000000002  1.0000
  O   O43       1.0  0.7007999999999999  0.7082000000000002  0.8222  1.0000
  O   O44       1.0  0.8329  0.8372  0.7894  1.0000
  O   O45       1.0  0.5912  0.6147  0.9483000000000001  1.0000
  O   O46       1.0  0.6736999999999999  0.6498  0.0505  1.0000
  O   O47       1.0  0.7959  0.5057  0.9131  1.0000
  O   O48       1.0  0.8873  0.5754  0.0045  1.0000
