data_image0
_chemical_formula_structural       NC9NC3SH6C7F3H5C8H6Zn2C4O8
_chemical_formula_sum              "N2 C31 S1 H17 F3 Zn2 O8"
_cell_length_a       16.77567553997237
_cell_length_b       9.272718291674593
_cell_length_c       9.275144076552243
_cell_angle_alpha    86.39339924805473
_cell_angle_beta     90.85075607413872
_cell_angle_gamma    90.46558260785916

_space_group_name_H-M_alt    "P 1"
_space_group_IT_number       1

loop_
  _space_group_symop_operation_xyz
  'x, y, z'

loop_
  _atom_site_type_symbol
  _atom_site_label
  _atom_site_symmetry_multiplicity
  _atom_site_fract_x
  _atom_site_fract_y
  _atom_site_fract_z
  _atom_site_occupancy
  N   N1        1.0  0.7372252690745602  0.5871414846916616  0.429694843018819  1.0000
  C   C1        1.0  0.6824588369258768  0.6422316749408719  0.4762901365174661  1.0000
  C   C2        1.0  0.6144928943017939  0.7105949552657437  0.534111335069239  1.0000
  C   C3        1.0  0.6166984952285499  0.8091401739336872  0.6403717963714115  1.0000
  C   C4        1.0  0.5410206036499796  0.8576509409481187  0.6757195507263909  1.0000
  C   C5        1.0  0.47891316822296504  0.7970924642102124  0.5968767213638752  1.0000
  C   C6        1.0  0.39235860966941066  0.8261136138944691  0.6091427344340459  1.0000
  C   C7        1.0  0.335613396595704  0.7372981572106325  0.5437676438617132  1.0000
  C   C8        1.0  0.2539123857846664  0.7640790640549857  0.5548437372011759  1.0000
  C   C9        1.0  0.19650484568426502  0.6722900687500936  0.48789715857512683  1.0000
  N   N2        1.0  0.1503661971640261  0.5985048722947939  0.4340819976274739  1.0000
  C   C10       1.0  0.2281245604723247  0.8800222119775591  0.6311187273241756  1.0000
  C   C11       1.0  0.2837751414899737  0.9690102893623903  0.6959827661842497  1.0000
  C   C12       1.0  0.36531831116119967  0.9426349745586659  0.6852367643889474  1.0000
  S   S1        1.0  0.5194602840842801  0.6829593042100534  0.4837750828528127  1.0000
  H   H1        1.0  0.671182993462683  0.8448736986983638  0.6914468603457007  1.0000
  H   H2        1.0  0.532811198093466  0.9336129667155592  0.7578650229536212  1.0000
  H   H3        1.0  0.35451848855793794  0.646630506287984  0.48485848541846815  1.0000
  H   H4        1.0  0.165092638296456  0.9016881990155592  0.640261665618975  1.0000
  H   H5        1.0  0.2636905882504084  0.058996545050812976  0.7545343289227989  1.0000
  H   H6        1.0  0.40668791928894993  0.014749743182187471  0.7354689602563396  1.0000
  C   C13       1.0  0.9455215953425617  0.16946564439217293  0.42872255684299465  1.0000
  C   C14       1.0  0.8964893080429681  0.24873090285439983  0.32858488590691737  1.0000
  C   C15       1.0  0.841866508938011  0.17907785979263302  0.2397614700882469  1.0000
  C   C16       1.0  0.8383757333236278  0.027752284488604895  0.24815171698449845  1.0000
  C   C17       1.0  0.887453864683924  0.9475073428513623  0.3451706955460163  1.0000
  C   C18       1.0  0.9420775853321012  0.016169936831923474  0.43506682937195507  1.0000
  C   C19       1.0  0.7913437849137951  0.2658351291188079  0.13043757194414418  1.0000
  F   F1        1.0  0.7710906578668705  0.39706475889573767  0.18260989333333935  1.0000
  F   F2        1.0  0.7216239322285027  0.19230581744282227  0.09958127016166207  1.0000
  F   F3        1.0  0.8337913788349423  0.2908991414807245  0.004622224423916022  1.0000
  H   H7        1.0  0.041546843636480986  0.2529820081598808  0.7408288013186337  1.0000
  H   H8        1.0  0.8996417516649512  0.3657393822001819  0.321909375668058  1.0000
  H   H9        1.0  0.7982239974598134  0.9710691018352069  0.1784085177633894  1.0000
  H   H10       1.0  0.8842087842656212  0.8306626011660646  0.3470756461932112  1.0000
  H   H11       1.0  0.11397591433324218  0.9062011807851137  0.6103849895042837  1.0000
  C   C20       1.0  0.9419338379470885  0.5898160223186617  0.008567124660922026  1.0000
  C   C21       1.0  0.8895741338812226  0.682407315766308  0.07469338271671866  1.0000
  C   C22       1.0  0.8435821095830967  0.7823175704697817  0.9920321994724802  1.0000
  C   C23       1.0  0.8491169289511018  0.7916835399124865  0.841729922506472  1.0000
  C   C24       1.0  0.8998220618950183  0.698941002383638  0.7738294649104813  1.0000
  C   C25       1.0  0.9456653568727107  0.5958196044684974  0.8552222603282633  1.0000
  C   C26       1.0  0.8019509311208327  0.895525005131197  0.7567162240004267  1.0000
  C   C27       1.0  0.7624636540115757  0.9824647645475951  0.6855236940060085  1.0000
  H   H12       1.0  0.10842977490891581  0.40512314935278193  0.12751299381827308  1.0000
  H   H13       1.0  0.8855964067065462  0.6798741389513938  0.1913030028119107  1.0000
  H   H14       1.0  0.8042313849690073  0.8533273349431041  0.04559594788949494  1.0000
  H   H15       1.0  0.9020831782692057  0.7049944599611471  0.6568140103374622  1.0000
  H   H16       1.0  0.05605756821914888  0.46684116000115505  0.5855856110349116  1.0000
  H   H17       1.0  0.7278020236673113  0.05877931997190844  0.6230299518486282  1.0000
  Zn  Zn1       1.0  0.8564488718452599  0.5904169228809806  0.4309691857965075  1.0000
  Zn  Zn2       1.0  0.03114268944224997  0.5952177572596111  0.4328194052305405  1.0000
  C   C28       1.0  0.9449816009082261  0.5889414171444565  0.6951432212794579  1.0000
  C   C29       1.0  0.9426118612549704  0.596695135456242  0.16864554507210872  1.0000
  C   C30       1.0  0.942699165938675  0.8560839609778501  0.4281229959748048  1.0000
  C   C31       1.0  0.9448942439978052  0.32955085843750687  0.4356658336234494  1.0000
  O   O1        1.0  0.00913483100739443  0.6008194307532068  0.223071426802679  1.0000
  O   O2        1.0  0.011047199166982937  0.5884597535244682  0.6421211901620181  1.0000
  O   O3        1.0  0.00920321697655302  0.8041807222174473  0.4265004707826827  1.0000
  O   O4        1.0  0.010978753068326075  0.3850984699686644  0.43869203753999764  1.0000
  O   O5        1.0  0.8766127486047175  0.8005362085351537  0.42509655284809034  1.0000
  O   O6        1.0  0.8784567234073978  0.5848169713907421  0.6407172083417785  1.0000
  O   O7        1.0  0.8765443478663854  0.5971765860924292  0.22166571141885028  1.0000
  O   O8        1.0  0.8783882704423488  0.38145561576267645  0.4372864301592261  1.0000
