data_image0
_chemical_formula_structural       NC9NC3OH6C7NC2NH7C7OCH10Zn2C4O8
_chemical_formula_sum              "N4 C33 O10 H23 Zn2"
_cell_length_a       15.78231758774541
_cell_length_b       9.273995741505848
_cell_length_c       10.300835455316065
_cell_angle_alpha    85.71363745915025
_cell_angle_beta     90.10164199731037
_cell_angle_gamma    90.21461439936415

_space_group_name_H-M_alt    "P 1"
_space_group_IT_number       1

loop_
  _space_group_symop_operation_xyz
  'x, y, z'

loop_
  _atom_site_type_symbol
  _atom_site_label
  _atom_site_symmetry_multiplicity
  _atom_site_fract_x
  _atom_site_fract_y
  _atom_site_fract_z
  _atom_site_occupancy
  N   N1        1.0  0.8069588201563278  0.5689827074640452  0.5736775746527556  1.0000
  C   C1        1.0  0.7578873439192038  0.47786636458928156  0.5975469262456723  1.0000
  C   C2        1.0  0.6969634419180617  0.3647688353195051  0.6271749438587005  1.0000
  C   C3        1.0  0.7157849207447045  0.22270009804238128  0.6643131097143421  1.0000
  C   C4        1.0  0.6386467219786787  0.15384804076117556  0.6823862595463146  1.0000
  C   C5        1.0  0.5774885942688172  0.2589951738396017  0.6549410409464758  1.0000
  C   C6        1.0  0.48428253638826324  0.2395550934590807  0.6601069959739427  1.0000
  C   C7        1.0  0.43124311092508727  0.35875251664092644  0.6288293915840459  1.0000
  C   C8        1.0  0.3429422667090633  0.3428121181589814  0.6330725105668075  1.0000
  C   C9        1.0  0.289226874182532  0.4654776506292902  0.6008766227601465  1.0000
  N   N2        1.0  0.2460524993987656  0.5640849124840185  0.574993995434274  1.0000
  C   C10       1.0  0.3069985108490392  0.207496888240104  0.6686418178764969  1.0000
  C   C11       1.0  0.3591084636972164  0.08854590321101967  0.6998591131933014  1.0000
  C   C12       1.0  0.4472210532245576  0.10404839313487724  0.6957312877757444  1.0000
  O   O1        1.0  0.6146847699194914  0.38360817570396444  0.6223174437781178  1.0000
  H   H1        1.0  0.7779616650499666  0.17478941349131064  0.6767865888836365  1.0000
  H   H2        1.0  0.6292443220006235  0.040637177357106584  0.7119959120766348  1.0000
  H   H3        1.0  0.4584719630275136  0.46405175797768683  0.6011454425982357  1.0000
  H   H4        1.0  0.2388023028476564  0.19399619868719362  0.6722333968672823  1.0000
  H   H5        1.0  0.33115355775519106  0.9839665422166275  0.7273542238735806  1.0000
  H   H6        1.0  0.4857496990327239  0.009830837637866408  0.7204658328559099  1.0000
  C   C13       1.0  0.023975590960692895  0.14307285792796698  0.573379626139634  1.0000
  C   C14       1.0  0.0388293539853568  0.22611891195686495  0.4559949322326199  1.0000
  C   C15       1.0  0.06126542022507772  0.16073074937331389  0.3435033661286744  1.0000
  C   C16       1.0  0.06978390463527434  0.01019000328594877  0.3451841283770125  1.0000
  C   C17       1.0  0.05315079612349024  0.9258859755192766  0.46148781562679425  1.0000
  C   C18       1.0  0.029043749822163855  0.9899835453013272  0.5753031293179904  1.0000
  C   C19       1.0  0.09459473429681475  0.9428907302897842  0.22459331856052597  1.0000
  N   N3        1.0  0.09765864178632383  0.017116488555728008  0.1066117779958373  1.0000
  C   C20       1.0  0.12305696962069951  0.918928665887033  0.02502183598394114  1.0000
  C   C21       1.0  0.13515955615450803  0.7878936047270448  0.09399129383138516  1.0000
  N   N4        1.0  0.11729608997294799  0.8031178931271916  0.2194862044868402  1.0000
  H   H7        1.0  0.9553015400422261  0.408479563723297  0.7600544115479322  1.0000
  H   H8        1.0  0.03514194880785194  0.3430030469035059  0.45179586785372033  1.0000
  H   H9        1.0  0.07320655465040521  0.22877909128738794  0.2553303428753564  1.0000
  H   H10       1.0  0.05602012461435613  0.809292243334889  0.463295892467346  1.0000
  H   H11       1.0  0.03019350534203634  0.6919850094620527  0.791241226018539  1.0000
  H   H12       1.0  0.1324111859092414  0.9418243574007187  0.9215233289741489  1.0000
  H   H13       1.0  0.12191528836876546  0.7225414645314768  0.29540162374188395  1.0000
  C   C22       1.0  0.026432243498161652  0.5664555129468577  0.19302445311504024  1.0000
  C   C23       1.0  0.10464018525885559  0.6393636085005365  0.18748878220237494  1.0000
  C   C24       1.0  0.14354816134986126  0.6776171796951902  0.0674794011223847  1.0000
  C   C25       1.0  0.10484368961803885  0.6395529741326481  0.9521910391351947  1.0000
  C   C26       1.0  0.026587112276424282  0.5666009248142791  0.9556583528015244  1.0000
  C   C27       1.0  0.9877483194354898  0.5307911285910556  0.07650934241850527  1.0000
  C   C28       1.0  0.22838585420690394  0.7518376266210633  0.0629378448728597  1.0000
  O   O2        1.0  0.29250675678356  0.6458610791266556  0.07040098010403151  1.0000
  C   C29       1.0  0.37250617639507233  0.7141854321865786  0.06625687951271186  1.0000
  H   H14       1.0  0.9969423191206481  0.5370322071659732  0.5226453952514225  1.0000
  H   H15       1.0  0.1356219513318171  0.6666701491268272  0.27638247509422165  1.0000
  H   H16       1.0  0.13596504243984164  0.6669908297163318  0.8599106201289217  1.0000
  H   H17       1.0  0.9274349707049622  0.4745502827754129  0.08001634341220497  1.0000
  H   H18       1.0  0.8794237086147119  0.4275403536347575  0.7550473508427492  1.0000
  H   H19       1.0  0.2332907166884991  0.8221742470799389  0.14579378502835016  1.0000
  H   H20       1.0  0.23348716246652657  0.8221940522801633  0.9706803756176612  1.0000
  H   H21       1.0  0.4221966355411477  0.6296575396582591  0.07219419786960124  1.0000
  H   H22       1.0  0.38147751092908844  0.7810473878145264  0.15057753587756473  1.0000
  H   H23       1.0  0.38168474835179733  0.7811052300732797  0.973067276657011  1.0000
  Zn  Zn1       1.0  0.9336717458658274  0.5675654592091812  0.5740649489508327  1.0000
  Zn  Zn2       1.0  0.11933947692084379  0.5654903934204762  0.5746172092775225  1.0000
  C   C30       1.0  0.026521556162873765  0.5608287728040462  0.8114911422075657  1.0000
  C   C31       1.0  0.026491705023790262  0.5722288766656214  0.33719115363298036  1.0000
  C   C32       1.0  0.0280803470862898  0.8298985021942162  0.5697650876408531  1.0000
  C   C33       1.0  0.024932840391146828  0.3031574154822827  0.5789172733054999  1.0000
  O   O3        1.0  0.09697155952724801  0.5733727025435422  0.38578438093324996  1.0000
  O   O4        1.0  0.09695920688537531  0.5581089320796995  0.7633166914509675  1.0000
  O   O5        1.0  0.09821700071014838  0.7753861522864645  0.5681211927166001  1.0000
  O   O6        1.0  0.09571370238861782  0.3560954933418825  0.5809797821412008  1.0000
  O   O7        1.0  0.9572974570387769  0.7769603599974617  0.5677023758918689  1.0000
  O   O8        1.0  0.9560396735639548  0.5596848722935523  0.7628978093251432  1.0000
  O   O9        1.0  0.956052025644464  0.5749485922081525  0.38536393750558084  1.0000
  O   O10       1.0  0.9547941684604145  0.3576713727110745  0.5805594360446629  1.0000
