data_image0
_chemical_formula_structural       NC5NC3BrH3C6NCH9C6SCH8Zn2C4O8
_chemical_formula_sum              "N3 C26 Br1 H20 S1 Zn2 O8"
_cell_length_a       13.839083392302014
_cell_length_b       9.273386996610926
_cell_length_c       10.302812801239593
_cell_angle_alpha    85.46621381537472
_cell_angle_beta     90.00087154347639
_cell_angle_gamma    89.42455387291925

_space_group_name_H-M_alt    "P 1"
_space_group_IT_number       1

loop_
  _space_group_symop_operation_xyz
  'x, y, z'

loop_
  _atom_site_type_symbol
  _atom_site_label
  _atom_site_symmetry_multiplicity
  _atom_site_fract_x
  _atom_site_fract_y
  _atom_site_fract_z
  _atom_site_occupancy
  N   N1        1.0  0.8987921447340784  0.5794841473485497  0.565579723137625  1.0000
  C   C1        1.0  0.8272373085795005  0.5158114906914528  0.5678937300786415  1.0000
  C   C2        1.0  0.7380851151714155  0.4365806910397511  0.5707730127359223  1.0000
  C   C3        1.0  0.6499925101077211  0.5128179231148935  0.5680026925754333  1.0000
  C   C4        1.0  0.5624715841481287  0.4380541334405299  0.5707194165337401  1.0000
  C   C5        1.0  0.4721600142204149  0.5166439104735876  0.5678634643620244  1.0000
  N   N2        1.0  0.3995612028289406  0.5798239300542674  0.565567325232337  1.0000
  C   C6        1.0  0.5629796219167311  0.28674145661696016  0.5762178288497248  1.0000
  C   C7        1.0  0.6506280343086395  0.21038289760388906  0.5789924755478728  1.0000
  C   C8        1.0  0.7383500123916903  0.2844322139071087  0.5763017323512425  1.0000
  Br  Br1       1.0  0.8565274475859197  0.17428804472611414  0.5803042400493315  1.0000
  H   H1        1.0  0.6495437333715411  0.6300724415121728  0.5637417087700174  1.0000
  H   H2        1.0  0.49569918457696477  0.22786008891604492  0.5783572236651979  1.0000
  H   H3        1.0  0.6503118607383471  0.09337770742333194  0.5832440593651596  1.0000
  C   C9        1.0  0.15215269018633104  0.15600205524721678  0.5662114368805602  1.0000
  C   C10       1.0  0.16911915438202363  0.23948917328274041  0.4488236685028691  1.0000
  C   C11       1.0  0.17698759341377676  0.17499163005577945  0.3314288685298312  1.0000
  C   C12       1.0  0.16800859609011254  0.024684873764778462  0.32842032664103993  1.0000
  C   C13       1.0  0.15274496453571354  0.9402359966821109  0.4454002755966182  1.0000
  C   C14       1.0  0.14620995948200655  0.003294879886507792  0.5649469050793248  1.0000
  N   N3        1.0  0.1750601879047573  0.9551503518377246  0.2086018190982826  1.0000
  C   C15       1.0  0.1911571731451518  0.033057778177351116  0.08190903876859057  1.0000
  H   H4        1.0  0.17189389882257156  0.4181601549909786  0.7793582802338344  1.0000
  H   H5        1.0  0.1740476322910565  0.3561384105256249  0.44723074285319453  1.0000
  H   H6        1.0  0.18917326760356934  0.2436020217412751  0.24324137066355148  1.0000
  H   H7        1.0  0.14818408827336516  0.8238318328564268  0.44335229023009615  1.0000
  H   H8        1.0  0.18178753419246862  0.8719570467706247  0.881158262779094  1.0000
  H   H9        1.0  0.16822876108809773  0.8427785942062926  0.2112941738731644  1.0000
  H   H10       1.0  0.1312551150219914  0.11159069999280156  0.059353257809523274  1.0000
  H   H11       1.0  0.2610962544597324  0.09065697759610858  0.08211680943170174  1.0000
  H   H12       1.0  0.19359305909456825  0.955622841777013  0.0050495753449371055  1.0000
  C   C16       1.0  0.14918136370347712  0.579648484849774  0.18433069783911993  1.0000
  C   C17       1.0  0.11558525176578582  0.7234957568532547  0.17291950239822573  1.0000
  C   C18       1.0  0.09862126670365279  0.7948566639006718  0.05026639031402147  1.0000
  C   C19       1.0  0.1155851657162803  0.7234956053521012  0.9377683329371544  1.0000
  C   C20       1.0  0.14918130109590244  0.5796484750849731  0.9468276014847175  1.0000
  C   C21       1.0  0.1657855038718461  0.5084151655712938  0.07064768347019013  1.0000
  S   S1        1.0  0.055894967556759045  0.9787497771802044  0.0371815909866311  1.0000
  C   C22       1.0  0.9291467348699387  0.9282585815901919  0.040772096391917145  1.0000
  H   H13       1.0  0.16180633779991196  0.5254209015034794  0.5159454182384222  1.0000
  H   H14       1.0  0.10223955378732708  0.7806323029017022  0.25895358570890403  1.0000
  H   H15       1.0  0.1022393617882942  0.780632094952113  0.8436032730417518  1.0000
  H   H16       1.0  0.19168221915380657  0.3974498128743822  0.0785432401098789  1.0000
  H   H17       1.0  0.16180454387731968  0.5254201512889443  0.6229298338866873  1.0000
  H   H18       1.0  0.9124625316534756  0.8640676116915631  0.9572219834343523  1.0000
  H   H19       1.0  0.9124629352754674  0.8640690699681913  0.1334566732816007  1.0000
  H   H20       1.0  0.8837271568924867  0.02780578672944766  0.03368808046108018  1.0000
  Zn  Zn1       1.0  0.04330330777375481  0.5795783333063794  0.56558365422537  1.0000
  Zn  Zn2       1.0  0.25505011486546825  0.5797179193450954  0.5655740663306434  1.0000
  C   C23       1.0  0.14921946992519297  0.5739011760413939  0.8027079507693874  1.0000
  C   C24       1.0  0.1491362522154438  0.5853968984306099  0.3284498943913834  1.0000
  C   C25       1.0  0.14732830503712613  0.8431385112202829  0.5600123705889519  1.0000
  C   C26       1.0  0.15102735700604747  0.3161578299079817  0.5711455463787409  1.0000
  O   O1        1.0  0.22947796629551198  0.5873727968027156  0.376813984136825  1.0000
  O   O2        1.0  0.22958869057356113  0.5720301318968  0.7543362119300625  1.0000
  O   O3        1.0  0.2280604677610685  0.7894426843104622  0.5583578116331067  1.0000
  O   O4        1.0  0.23100611678078686  0.3699602546616696  0.5727922870777373  1.0000
  O   O5        1.0  0.0673472335996319  0.7893359979437424  0.5583654334747163  1.0000
  O   O6        1.0  0.06887544425078374  0.571925178827756  0.7543437619611912  1.0000
  O   O7        1.0  0.06876472038972548  0.5872677934601735  0.3768199733354607  1.0000
  O   O8        1.0  0.07029287094341363  0.3698552410004481  0.5727983736288575  1.0000
