data_image0
_chemical_formula_structural       NC9NC3OH6C6NO2H4C6OCH7Zn2C4O8
_chemical_formula_sum              "N3 C29 O12 H17 Zn2"
_cell_length_a       15.78231758774541
_cell_length_b       9.273392599741051
_cell_length_c       9.27389158865715
_cell_angle_alpha    86.1963526091537
_cell_angle_beta     89.76748324947235
_cell_angle_gamma    89.0365174922554

_space_group_name_H-M_alt    "P 1"
_space_group_IT_number       1

loop_
  _space_group_symop_operation_xyz
  'x, y, z'

loop_
  _atom_site_type_symbol
  _atom_site_label
  _atom_site_symmetry_multiplicity
  _atom_site_fract_x
  _atom_site_fract_y
  _atom_site_fract_z
  _atom_site_occupancy
  N   N1        1.0  0.7935674669342725  0.5552610218592818  0.4161120182821638  1.0000
  C   C1        1.0  0.7455037675387851  0.46435971815862853  0.4426432708336045  1.0000
  C   C2        1.0  0.685830760192538  0.351529108230781  0.4755753931200927  1.0000
  C   C3        1.0  0.7062238743124302  0.2097948811660182  0.5168553094794883  1.0000
  C   C4        1.0  0.6298470604729647  0.1411056761859535  0.5369439165665688  1.0000
  C   C5        1.0  0.5675255816092722  0.24600564071380385  0.5064378706227977  1.0000
  C   C6        1.0  0.4745342513066841  0.22661216343061796  0.5121798228432468  1.0000
  C   C7        1.0  0.4201766658053599  0.3455277617959527  0.47741422862915806  1.0000
  C   C8        1.0  0.33205186509877455  0.32962564738745503  0.48213043938948696  1.0000
  C   C9        1.0  0.2769799921793841  0.45200107383876276  0.446344169534334  1.0000
  N   N2        1.0  0.23271518719629872  0.5503751151794758  0.41757519659614806  1.0000
  C   C10       1.0  0.29760426674980217  0.194630965862858  0.5216662432525392  1.0000
  C   C11       1.0  0.3510296373664949  0.07596126597461163  0.5563647964819451  1.0000
  C   C12       1.0  0.43897102454766834  0.09142651100079925  0.551776735930783  1.0000
  O   O1        1.0  0.6033434154181206  0.37032475413895016  0.47017607180798093  1.0000
  H   H1        1.0  0.7689308289455886  0.16199650375137953  0.5307199405335551  1.0000
  H   H2        1.0  0.6216969961913452  0.028161525403535222  0.5698556965747641  1.0000
  H   H3        1.0  0.44624126050754626  0.45057751305853616  0.4466431224923295  1.0000
  H   H4        1.0  0.2295571667394533  0.1811626799882644  0.5256582728474213  1.0000
  H   H5        1.0  0.32423102770311396  0.9716296935901674  0.5869260055128211  1.0000
  H   H6        1.0  0.4785415416556828  0.9974318345418818  0.5792695901725051  1.0000
  C   C13       1.0  0.015731508969367248  0.12925241338443283  0.4159458317289191  1.0000
  C   C14       1.0  0.0053797160174933216  0.21151386352683055  0.2842425574285721  1.0000
  C   C15       1.0  0.9875340024193137  0.14546008380436848  0.15729199599650734  1.0000
  C   C16       1.0  0.9794471052325758  0.9951453041836958  0.158503269057934  1.0000
  C   C17       1.0  0.9911240268571535  0.9116915811155638  0.2892058333091443  1.0000
  C   C18       1.0  0.01055925858773499  0.9763726338159441  0.41775380157988745  1.0000
  N   N3        1.0  0.9602969244332096  0.9276500895114492  0.027321860127129224  1.0000
  O   O2        1.0  0.949605110567288  0.009700796965903757  0.8993205975371872  1.0000
  O   O3        1.0  0.9528342046706477  0.7938019651751758  0.02752710771634459  1.0000
  H   H7        1.0  0.9972954697026939  0.2091624911123762  0.7696506755479275  1.0000
  H   H8        1.0  0.97920604388656  0.21256696426295796  0.05819845415374791  1.0000
  H   H9        1.0  0.9870277225556598  0.7951443593817913  0.29021820537993626  1.0000
  H   H10       1.0  0.0010303096999231321  0.6805730927161916  0.6568117001580913  1.0000
  C   C19       1.0  0.01455688457581483  0.5489770493209668  0.993570972180041  1.0000
  C   C20       1.0  0.08357911942926011  0.6091278207054294  0.06250590973496917  1.0000
  C   C21       1.0  0.14772906534683872  0.6801026306018562  0.9830643742655627  1.0000
  C   C22       1.0  0.14308552795704305  0.6912855247651339  0.831632275292279  1.0000
  C   C23       1.0  0.07584887348372082  0.6302415860872481  0.761359207341273  1.0000
  C   C24       1.0  0.011733861960448786  0.5566479790695578  0.8401286684924041  1.0000
  O   O4        1.0  0.21444800388988905  0.7385032486500007  0.05862071893509113  1.0000
  C   C25       1.0  0.2837635697000729  0.8136365711945087  0.9919388535944882  1.0000
  H   H11       1.0  0.8135433327890504  0.46262937900883666  0.10372758731009311  1.0000
  H   H12       1.0  0.19156236828376205  0.7458209813779431  0.7669903305095914  1.0000
  H   H13       1.0  0.07511975524533465  0.6376830217245288  0.6442916190529311  1.0000
  H   H14       1.0  0.8777228672399874  0.4927815020192623  0.5640986863921675  1.0000
  H   H15       1.0  0.2604215561627794  0.911496763057782  0.9276758110560586  1.0000
  H   H16       1.0  0.3195325764436603  0.7416583394701801  0.921491122801732  1.0000
  H   H17       1.0  0.32692932967566635  0.8476306032216552  0.07700050442161553  1.0000
  Zn  Zn1       1.0  0.9202960050335265  0.5538472772924483  0.41654256866357925  1.0000
  Zn  Zn2       1.0  0.10598665318958583  0.5517771942622344  0.41715640407235954  1.0000
  C   C26       1.0  0.012300681189141517  0.5494519498652961  0.6800988852713202  1.0000
  C   C27       1.0  0.013983993186404975  0.5561743202915692  0.15360023952611002  1.0000
  C   C28       1.0  0.011551714525845233  0.8161969083362153  0.4116681779393032  1.0000
  C   C29       1.0  0.014732906811010691  0.2894276302803238  0.42203101979756674  1.0000
  O   O5        1.0  0.08426039726381229  0.5577979118253136  0.2075404574411643  1.0000
  O   O6        1.0  0.08295919050046513  0.5462561213258557  0.6266241369767079  1.0000
  O   O7        1.0  0.08235343549903851  0.7616560729126238  0.40986444167496505  1.0000
  O   O8        1.0  0.0848660891989978  0.3423979702837543  0.42430004447996317  1.0000
  O   O9        1.0  0.9414165056570255  0.7632265019788476  0.409398928038925  1.0000
  O   O10       1.0  0.9420222503300533  0.5478282826403251  0.6261585501841791  1.0000
  O   O11       1.0  0.9433234632356228  0.5593700071725514  0.207073137553154  1.0000
  O   O12       1.0  0.9439291548699599  0.3439700562937025  0.4238328326378473  1.0000
