data_image0
_chemical_formula_structural       Zn12H24C72O52
_chemical_formula_sum              "Zn12 H24 C72 O52"
_cell_length_a       17.0713
_cell_length_b       17.0713
_cell_length_c       17.0713
_cell_angle_alpha    105.83
_cell_angle_beta     105.83
_cell_angle_gamma    117.02900000000001

_space_group_name_H-M_alt    "P 1"
_space_group_IT_number       1

loop_
  _space_group_symop_operation_xyz
  'x, y, z'

loop_
  _atom_site_type_symbol
  _atom_site_label
  _atom_site_symmetry_multiplicity
  _atom_site_fract_x
  _atom_site_fract_y
  _atom_site_fract_z
  _atom_site_occupancy
  Zn  Zn1       1.0  0.1614  0.29871000000000003  0.6229499999999998  1.0000
  Zn  Zn2       1.0  0.6757599999999998  0.53845  0.3770499999999999  1.0000
  Zn  Zn3       1.0  0.5384499999999998  0.16139999999999974  0.8626899999999995  1.0000
  Zn  Zn4       1.0  0.29871  0.67576  0.13731  1.0000
  Zn  Zn5       1.0  0.1757599999999999  0.79871  0.13731  1.0000
  Zn  Zn6       1.0  0.6613999999999998  0.03844999999999973  0.8626899999999995  1.0000
  Zn  Zn7       1.0  0.7987099999999998  0.6613999999999999  0.6229499999999998  1.0000
  Zn  Zn8       1.0  0.038449999999999936  0.17575999999999994  0.3770499999999999  1.0000
  Zn  Zn9       1.0  0.9296599999999997  0.11581999999999992  0.49999999999999967  1.0000
  Zn  Zn10      1.0  0.6158199999999999  0.42966000000000004  0.49999999999999967  1.0000
  Zn  Zn11      1.0  0.4296599999999997  0.9296600000000002  0.8138399999999996  1.0000
  Zn  Zn12      1.0  0.11582000000000013  0.6158200000000004  0.18615999999999988  1.0000
  H   H1        1.0  0.9405999999999998  0.33289999999999986  0.9650999999999995  1.0000
  H   H2        1.0  0.8573000000000001  0.1714999999999999  0.6998  1.0000
  H   H3        1.0  0.12289999999999995  0.43580000000000013  0.8570999999999998  1.0000
  H   H4        1.0  0.3678  0.9755000000000005  0.03489999999999997  1.0000
  H   H5        1.0  0.4717  0.1575  0.3002  1.0000
  H   H6        1.0  0.5787  0.2658000000000001  0.1429  1.0000
  H   H7        1.0  0.9755  0.9406000000000001  0.6076999999999997  1.0000
  H   H8        1.0  0.1575000000000002  0.8573000000000004  0.6858  1.0000
  H   H9        1.0  0.2658  0.1229  0.6871  1.0000
  H   H10       1.0  0.3329  0.3678  0.3922999999999999  1.0000
  H   H11       1.0  0.17149999999999993  0.4717  0.3141999999999998  1.0000
  H   H12       1.0  0.4358000000000002  0.5787000000000003  0.3128999999999998  1.0000
  H   H13       1.0  0.8678  0.8329000000000004  0.3922999999999999  1.0000
  H   H14       1.0  0.9716999999999999  0.6715000000000004  0.3141999999999998  1.0000
  H   H15       1.0  0.07870000000000006  0.9358000000000002  0.3128999999999998  1.0000
  H   H16       1.0  0.4406  0.4755  0.6076999999999997  1.0000
  H   H17       1.0  0.35730000000000006  0.6575  0.6858  1.0000
  H   H18       1.0  0.6229000000000001  0.7658000000000005  0.6871  1.0000
  H   H19       1.0  0.8328999999999999  0.44060000000000005  0.9650999999999995  1.0000
  H   H20       1.0  0.6715  0.35730000000000023  0.6998  1.0000
  H   H21       1.0  0.9358000000000001  0.6229000000000002  0.8570999999999998  1.0000
  H   H22       1.0  0.4754999999999999  0.8678000000000003  0.03489999999999997  1.0000
  H   H23       1.0  0.6575  0.9717000000000005  0.3002  1.0000
  H   H24       1.0  0.7657999999999999  0.0787  0.1429  1.0000
  C   C1        1.0  0.04209999999999983  0.3998999999999999  0.9241999999999996  1.0000
  C   C2        1.0  0.9538999999999999  0.3255  0.9151999999999996  1.0000
  C   C3        1.0  0.8847  0.239  0.8307  1.0000
  C   C4        1.0  0.9039  0.22800000000000006  0.7560999999999999  1.0000
  C   C5        1.0  0.9934999999999997  0.30209999999999976  0.7655999999999995  1.0000
  C   C6        1.0  0.06280000000000001  0.3873  0.8503  1.0000
  C   C7        1.0  0.9788  0.9931000000000001  0.3781  1.0000
  C   C8        1.0  0.7907999999999996  0.15509999999999988  0.8200999999999996  1.0000
  C   C9        1.0  0.017499999999999894  0.2845  0.6859999999999996  1.0000
  C   C10       1.0  0.4757  0.11790000000000002  0.07579999999999996  1.0000
  C   C11       1.0  0.4103  0.03870000000000002  0.08479999999999999  1.0000
  C   C12       1.0  0.4083  0.05399999999999998  0.1693  1.0000
  C   C13       1.0  0.4719  0.14779999999999993  0.24389999999999992  1.0000
  C   C14       1.0  0.5365  0.2279000000000001  0.2344  1.0000
  C   C15       1.0  0.5369999999999999  0.21250000000000005  0.1497  1.0000
  C   C16       1.0  0.6149999999999999  0.6007  0.6218999999999996  1.0000
  C   C17       1.0  0.335  0.9707000000000005  0.1798999999999999  1.0000
  C   C18       1.0  0.5985000000000001  0.33150000000000024  0.314  1.0000
  C   C19       1.0  0.1179000000000001  0.04210000000000022  0.6422  1.0000
  C   C20       1.0  0.03869999999999993  0.9539  0.6283999999999996  1.0000
  C   C21       1.0  0.05399999999999998  0.8847000000000002  0.6457  1.0000
  C   C22       1.0  0.14780000000000001  0.9039000000000001  0.6759  1.0000
  C   C23       1.0  0.22789999999999996  0.9935  0.6914  1.0000
  C   C24       1.0  0.21249999999999997  0.06280000000000001  0.6755  1.0000
  C   C25       1.0  0.6006999999999998  0.9788  0.9856999999999996  1.0000
  C   C26       1.0  0.9707  0.7908000000000004  0.6356999999999999  1.0000
  C   C27       1.0  0.3315  0.017500000000000047  0.733  1.0000
  C   C28       1.0  0.3999000000000001  0.4757000000000002  0.3578  1.0000
  C   C29       1.0  0.3255  0.4103000000000002  0.3716  1.0000
  C   C30       1.0  0.23899999999999996  0.4083  0.3542999999999998  1.0000
  C   C31       1.0  0.22800000000000012  0.4719000000000002  0.3241  1.0000
  C   C32       1.0  0.3021  0.5365  0.3086  1.0000
  C   C33       1.0  0.3873  0.5370000000000005  0.3245  1.0000
  C   C34       1.0  0.9931  0.615  0.014299999999999993  1.0000
  C   C35       1.0  0.1551  0.33500000000000024  0.3643  1.0000
  C   C36       1.0  0.28449999999999986  0.5985000000000001  0.267  1.0000
  C   C37       1.0  0.9757000000000002  0.8999000000000005  0.3578  1.0000
  C   C38       1.0  0.9102999999999999  0.8255000000000005  0.3716  1.0000
  C   C39       1.0  0.9083  0.7390000000000003  0.3542999999999998  1.0000
  C   C40       1.0  0.9718999999999999  0.7280000000000004  0.3241  1.0000
  C   C41       1.0  0.03650000000000006  0.8021000000000001  0.3086  1.0000
  C   C42       1.0  0.037000000000000206  0.8873000000000004  0.3245  1.0000
  C   C43       1.0  0.11500000000000005  0.4931000000000002  0.014299999999999993  1.0000
  C   C44       1.0  0.8349999999999997  0.6551000000000003  0.3643  1.0000
  C   C45       1.0  0.09849999999999999  0.7845  0.267  1.0000
  C   C46       1.0  0.5421  0.6179  0.6422  1.0000
  C   C47       1.0  0.4539000000000001  0.5387000000000002  0.6283999999999996  1.0000
  C   C48       1.0  0.3847000000000002  0.5540000000000005  0.6457  1.0000
  C   C49       1.0  0.40389999999999965  0.6478  0.6759  1.0000
  C   C50       1.0  0.4935  0.7279  0.6914  1.0000
  C   C51       1.0  0.5628  0.7125000000000004  0.6755  1.0000
  C   C52       1.0  0.4787999999999998  0.10069999999999976  0.9856999999999996  1.0000
  C   C53       1.0  0.2907999999999998  0.4707000000000002  0.6356999999999999  1.0000
  C   C54       1.0  0.5174999999999997  0.8315000000000005  0.733  1.0000
  C   C55       1.0  0.8998999999999998  0.5420999999999999  0.9241999999999996  1.0000
  C   C56       1.0  0.8254999999999999  0.45389999999999997  0.9151999999999996  1.0000
  C   C57       1.0  0.7389999999999999  0.3847  0.8307  1.0000
  C   C58       1.0  0.7279999999999995  0.4038999999999999  0.7560999999999999  1.0000
  C   C59       1.0  0.8020999999999999  0.4935  0.7655999999999995  1.0000
  C   C60       1.0  0.8873000000000004  0.5628000000000004  0.8503  1.0000
  C   C61       1.0  0.4930999999999999  0.4788000000000002  0.3781  1.0000
  C   C62       1.0  0.6550999999999999  0.2908  0.8200999999999996  1.0000
  C   C63       1.0  0.7845  0.5175  0.6859999999999996  1.0000
  C   C64       1.0  0.6179  0.9757000000000002  0.07579999999999996  1.0000
  C   C65       1.0  0.5387  0.9103000000000002  0.08479999999999999  1.0000
  C   C66       1.0  0.554  0.9083000000000004  0.1693  1.0000
  C   C67       1.0  0.6477999999999999  0.9719000000000004  0.24389999999999992  1.0000
  C   C68       1.0  0.7278999999999995  0.03649999999999999  0.2344  1.0000
  C   C69       1.0  0.7125  0.037  0.1497  1.0000
  C   C70       1.0  0.10069999999999979  0.1149999999999999  0.6218999999999996  1.0000
  C   C71       1.0  0.4707  0.8350000000000004  0.1798999999999999  1.0000
  C   C72       1.0  0.8315  0.0985  0.314  1.0000
  O   O1        1.0  0.04039999999999993  0.05829999999999997  0.36569999999999986  1.0000
  O   O2        1.0  0.9189  0.9986  0.4037  1.0000
  O   O3        1.0  0.7880999999999999  0.1534  0.8938999999999996  1.0000
  O   O4        1.0  0.7238999999999995  0.09330000000000013  0.7437999999999999  1.0000
  O   O5        1.0  0.9442999999999999  0.22520000000000007  0.6079  1.0000
  O   O6        1.0  0.10949999999999976  0.33039999999999986  0.7060999999999996  1.0000
  O   O7        1.0  0.6926  0.6747000000000002  0.6342999999999998  1.0000
  O   O8        1.0  0.5949  0.5152  0.5963  1.0000
  O   O9        1.0  0.25950000000000034  0.8942000000000003  0.1061  1.0000
  O   O10       1.0  0.34950000000000003  0.9801000000000003  0.25619999999999993  1.0000
  O   O11       1.0  0.6173  0.3364  0.3921  1.0000
  O   O12       1.0  0.6242999999999999  0.4034  0.2939  1.0000
  O   O13       1.0  0.6746999999999997  0.040399999999999915  0.9820999999999998  1.0000
  O   O14       1.0  0.5152  0.9189  0.9202999999999996  1.0000
  O   O15       1.0  0.8941999999999999  0.7881000000000005  0.6347  1.0000
  O   O16       1.0  0.9801000000000001  0.7239000000000004  0.6306  1.0000
  O   O17       1.0  0.3363999999999998  0.9443000000000003  0.7190999999999997  1.0000
  O   O18       1.0  0.40339999999999987  0.10949999999999996  0.7791  1.0000
  O   O19       1.0  0.0583  0.6926  0.017899999999999996  1.0000
  O   O20       1.0  0.9985999999999999  0.5949  0.07969999999999998  1.0000
  O   O21       1.0  0.1534  0.2595  0.3652999999999998  1.0000
  O   O22       1.0  0.0933  0.3495  0.3694  1.0000
  O   O23       1.0  0.22520000000000018  0.6173000000000003  0.2808999999999999  1.0000
  O   O24       1.0  0.3304000000000001  0.6243000000000001  0.22089999999999993  1.0000
  O   O25       1.0  0.19260000000000005  0.5583000000000005  0.017899999999999996  1.0000
  O   O26       1.0  0.09489999999999998  0.4986  0.07969999999999998  1.0000
  O   O27       1.0  0.7594999999999996  0.6534  0.3652999999999998  1.0000
  O   O28       1.0  0.8495  0.5933  0.3694  1.0000
  O   O29       1.0  0.11730000000000011  0.7251999999999998  0.2808999999999999  1.0000
  O   O30       1.0  0.12430000000000009  0.8304000000000004  0.22089999999999993  1.0000
  O   O31       1.0  0.5404  0.1746999999999999  0.9820999999999998  1.0000
  O   O32       1.0  0.4188999999999997  0.015199999999999804  0.9202999999999996  1.0000
  O   O33       1.0  0.28809999999999997  0.3942  0.6347  1.0000
  O   O34       1.0  0.2239000000000001  0.48010000000000025  0.6306  1.0000
  O   O35       1.0  0.44430000000000003  0.8364000000000003  0.7190999999999997  1.0000
  O   O36       1.0  0.6095000000000004  0.9034000000000004  0.7791  1.0000
  O   O37       1.0  0.5583  0.5404  0.36569999999999986  1.0000
  O   O38       1.0  0.49859999999999993  0.4189  0.4037  1.0000
  O   O39       1.0  0.6534  0.2881  0.8938999999999996  1.0000
  O   O40       1.0  0.5932999999999997  0.22390000000000007  0.7437999999999999  1.0000
  O   O41       1.0  0.7252  0.44430000000000003  0.6079  1.0000
  O   O42       1.0  0.8303999999999998  0.6095000000000003  0.7060999999999996  1.0000
  O   O43       1.0  0.1747  0.1926000000000001  0.6342999999999998  1.0000
  O   O44       1.0  0.015199999999999983  0.09489999999999998  0.5963  1.0000
  O   O45       1.0  0.3942  0.7595  0.1061  1.0000
  O   O46       1.0  0.4801000000000001  0.8495000000000005  0.25619999999999993  1.0000
  O   O47       1.0  0.8364  0.1173  0.3921  1.0000
  O   O48       1.0  0.9034  0.12430000000000009  0.2939  1.0000
  O   O49       1.0  0.05108999999999988  0.23110999999999995  0.49999999999999967  1.0000
  O   O50       1.0  0.7311099999999998  0.5510900000000002  0.49999999999999967  1.0000
  O   O51       1.0  0.55109  0.05108999999999999  0.81998  1.0000
  O   O52       1.0  0.23111000000000004  0.7311100000000005  0.18002  1.0000
