data_image0
_chemical_formula_structural       NC9NC3OH6C6NH5C6BrH3Zn2C4O8
_chemical_formula_sum              "N3 C28 O9 H14 Br1 Zn2"
_cell_length_a       15.78231758774541
_cell_length_b       9.274771166103584
_cell_length_c       10.302972455390005
_cell_angle_alpha    85.45577943417274
_cell_angle_beta     90.08385913268748
_cell_angle_gamma    90.23039320205511

_space_group_name_H-M_alt    "P 1"
_space_group_IT_number       1

loop_
  _space_group_symop_operation_xyz
  'x, y, z'

loop_
  _atom_site_type_symbol
  _atom_site_label
  _atom_site_symmetry_multiplicity
  _atom_site_fract_x
  _atom_site_fract_y
  _atom_site_fract_z
  _atom_site_occupancy
  N   N1        1.0  0.8074976619976231  0.5696504107239326  0.5678201379539645  1.0000
  C   C1        1.0  0.7584068632693296  0.47850653700967505  0.5920411097143989  1.0000
  C   C2        1.0  0.6974589772887837  0.3653748352093162  0.6221055733559854  1.0000
  C   C3        1.0  0.716250344488716  0.22326318686576  0.6597920012445286  1.0000
  C   C4        1.0  0.6390975373193192  0.15439031898941957  0.6781308457786431  1.0000
  C   C5        1.0  0.5779616872815493  0.25956920329839983  0.6502798424746987  1.0000
  C   C6        1.0  0.48475149197574724  0.24012323510616113  0.655520802993063  1.0000
  C   C7        1.0  0.4317373545397873  0.3593566837495248  0.6237832229688967  1.0000
  C   C8        1.0  0.34343311628097256  0.34341145603800105  0.628087843259284  1.0000
  C   C9        1.0  0.2897437492235587  0.466114063721432  0.5954185981971318  1.0000
  N   N2        1.0  0.24659029582052988  0.5647511295096161  0.5691554529603711  1.0000
  C   C10       1.0  0.3074606403008838  0.20805531742181843  0.6641793117237507  1.0000
  C   C11       1.0  0.3595453565198481  0.08906838058220079  0.6958556308382768  1.0000
  C   C12       1.0  0.4476612471083145  0.10457556731143038  0.6916679939007497  1.0000
  O   O1        1.0  0.6151842846489899  0.38421985307796347  0.617175356694703  1.0000
  H   H1        1.0  0.7784169443932687  0.17533804085774146  0.6724503839581939  1.0000
  H   H2        1.0  0.6296711390833941  0.04114525797562175  0.7081773910352369  1.0000
  H   H3        1.0  0.4589885569463775  0.4646877602066286  0.5956929409388436  1.0000
  H   H4        1.0  0.23926155815241604  0.1945505381670647  0.6678229795401003  1.0000
  H   H5        1.0  0.3315682529859678  0.9844574020281143  0.7237542965766085  1.0000
  H   H6        1.0  0.48616990205456007  0.010329533875856006  0.7167661165455589  1.0000
  C   C13       1.0  0.024446823812166896  0.14363320807957478  0.5691875260446899  1.0000
  C   C14       1.0  0.004950211940105919  0.2271594914625392  0.45303014255186297  1.0000
  C   C15       1.0  0.9933642003026393  0.16223937369890254  0.3361602234088887  1.0000
  C   C16       1.0  0.0013192188817718865  0.012415003906289577  0.33460157829320236  1.0000
  C   C17       1.0  0.019249092419201475  0.9275867735353344  0.449159348913652  1.0000
  C   C18       1.0  0.029649162616489186  0.9907572007426956  0.5677993449574048  1.0000
  N   N3        1.0  0.9743881435340542  0.24885934681570454  0.21872843762252644  1.0000
  H   H7        1.0  0.11979941263292022  0.22222962213440778  0.8536052495288681  1.0000
  H   H8        1.0  0.9928059589979983  0.9610227655441886  0.2446831860261238  1.0000
  H   H9        1.0  0.09043892432173734  0.6930126238495502  0.7612916811754153  1.0000
  H   H10       1.0  0.9685505861771976  0.36099838165722  0.21866851817739794  1.0000
  H   H11       1.0  0.9659546464484845  0.20148342630908322  0.1309453418222144  1.0000
  C   C19       1.0  0.0270479604078213  0.567195175518407  0.18725087051721687  1.0000
  C   C20       1.0  0.050854025429222884  0.4209812207072942  0.19651620251638757  1.0000
  C   C21       1.0  0.06266316532230576  0.34845120428113513  0.08417447236265985  1.0000
  C   C22       1.0  0.05085416788496808  0.4209811628164457  0.9614338124415838  1.0000
  C   C23       1.0  0.027048000518711927  0.5671951790184206  0.949735952707149  1.0000
  C   C24       1.0  0.015259884416265907  0.6395960544401134  0.06330323830238016  1.0000
  Br  Br1       1.0  0.09504334061558833  0.14957495533975385  0.09843131254688187  1.0000
  H   H12       1.0  0.06033065790822475  0.36277612231314804  0.2906880343652282  1.0000
  H   H13       1.0  0.06033099299405428  0.3627761668979901  0.8756071326748109  1.0000
  H   H14       1.0  0.9968996905271731  0.7523618636521403  0.05521940214469878  1.0000
  Zn  Zn1       1.0  0.9342102838905959  0.568232731175661  0.5682129783177768  1.0000
  Zn  Zn2       1.0  0.11987757314001367  0.5661570367525612  0.5687732446896931  1.0000
  C   C25       1.0  0.02701082382944952  0.5614490648744689  0.805619372143684  1.0000
  C   C26       1.0  0.027079071858701734  0.5729425003206619  0.33136698142371146  1.0000
  C   C27       1.0  0.028661438068503294  0.8306327518149571  0.5628882481530597  1.0000
  C   C28       1.0  0.025428383622053023  0.30375708113784894  0.5740981772786851  1.0000
  O   O2        1.0  0.09754924315853247  0.5740773471530404  0.3799462932411277  1.0000
  O   O3        1.0  0.09745782233888599  0.5587377258741013  0.7574649175998582  1.0000
  O   O4        1.0  0.0987897643804973  0.7761069679897139  0.5614578122904947  1.0000
  O   O5        1.0  0.09621723782461157  0.3567081160639077  0.5759533009999979  1.0000
  O   O6        1.0  0.9578705558468743  0.7776816525742168  0.561032921809449  1.0000
  O   O7        1.0  0.9565386244437347  0.5603141434108321  0.7570399550564408  1.0000
  O   O8        1.0  0.9566300450109468  0.5756537144255462  0.37951976989692027  1.0000
  O   O9        1.0  0.9552980396102114  0.3582844730198362  0.5755268750082616  1.0000
