data_image0
_chemical_formula_structural       NC5NC3BrH3C6NCH9C6OCH7Zn2C4O8
_chemical_formula_sum              "N3 C26 Br1 H19 O9 Zn2"
_cell_length_a       13.839083392302014
_cell_length_b       9.273386996610926
_cell_length_c       9.273891588657154
_cell_angle_alpha    85.97842517681073
_cell_angle_beta     89.68090098130043
_cell_angle_gamma    89.42455387291925

_space_group_name_H-M_alt    "P 1"
_space_group_IT_number       1

loop_
  _space_group_symop_operation_xyz
  'x, y, z'

loop_
  _atom_site_type_symbol
  _atom_site_label
  _atom_site_symmetry_multiplicity
  _atom_site_fract_x
  _atom_site_fract_y
  _atom_site_fract_z
  _atom_site_occupancy
  N   N1        1.0  0.9048485762635853  0.56511278757413  0.4074802575733816  1.0000
  C   C1        1.0  0.8332839698730291  0.5014633147961278  0.410049310588821  1.0000
  C   C2        1.0  0.7441196195130737  0.42226136248270474  0.4132459430888691  1.0000
  C   C3        1.0  0.6560387113381067  0.498470838907457  0.41017028275445755  1.0000
  C   C4        1.0  0.5685063147845024  0.4237342679067575  0.41318643960061596  1.0000
  C   C5        1.0  0.47820680330232157  0.5022954313480941  0.41001570903423556  1.0000
  N   N2        1.0  0.4056176867050756  0.5654524460660728  0.4074664931911747  1.0000
  C   C6        1.0  0.5689911370713874  0.27247667930444064  0.41929087796254505  1.0000
  C   C7        1.0  0.6566278343069939  0.19614591928904712  0.4223713416985464  1.0000
  C   C8        1.0  0.7443611732876819  0.270168277218098  0.4193840291712816  1.0000
  Br  Br1       1.0  0.8625217090318608  0.16006420889112571  0.4238276867458681  1.0000
  H   H1        1.0  0.6556079253938044  0.61568266679607  0.4054396602571737  1.0000
  H   H2        1.0  0.501701666745666  0.21361674605553915  0.42166607338849027  1.0000
  H   H3        1.0  0.6562937096335998  0.07918332543931152  0.4270915281563261  1.0000
  C   C9        1.0  0.15820645448427983  0.14163702457007799  0.4081815977757015  1.0000
  C   C10       1.0  0.1756685551353745  0.22394804249067432  0.27785554084781783  1.0000
  C   C11       1.0  0.1840326603114404  0.15827432869970792  0.1475216773136061  1.0000
  C   C12       1.0  0.17506636569997802  0.007937430030926952  0.14418153884017548  1.0000
  C   C13       1.0  0.15930881959166296  0.9246605671479685  0.27405482715377216  1.0000
  C   C14       1.0  0.1522690629057295  0.9889171799507464  0.40677769133985664  1.0000
  N   N3        1.0  0.18262385707460926  0.9372024545775903  0.011156830637280235  1.0000
  C   C15       1.0  0.1992557665361165  0.01384055451664334  0.8705001785023274  1.0000
  H   H4        1.0  0.17704771121428875  0.4059306281267893  0.6448211388859881  1.0000
  H   H5        1.0  0.18060375871977907  0.34058132031917077  0.2760870455286686  1.0000
  H   H6        1.0  0.1965906811218161  0.22600117580633428  0.049614297131800544  1.0000
  H   H7        1.0  0.15475659036487688  0.8082358846953592  0.2717811161772925  1.0000
  H   H8        1.0  0.18651152511976887  0.8607474470489799  0.7578413496268923  1.0000
  H   H9        1.0  0.175781062555882  0.8248576714666208  0.014145932368325516  1.0000
  H   H10       1.0  0.13944894378098405  0.09214749148763456  0.8454583361200263  1.0000
  H   H11       1.0  0.2691939705981832  0.071441835575627  0.87073084930937  1.0000
  H   H12       1.0  0.2020161697034848  0.9356355683486411  0.7851693902606685  1.0000
  C   C16       1.0  0.15684751077776293  0.5614574168666862  0.9842105859421104  1.0000
  C   C17       1.0  0.23555214848789263  0.6224454262650123  0.05268114935828705  1.0000
  C   C18       1.0  0.3087003151283001  0.6942023135010043  0.9727505669792502  1.0000
  C   C19       1.0  0.30340467734241144  0.7053328634433323  0.8212916481221959  1.0000
  C   C20       1.0  0.22673621405707012  0.643472705443017  0.7514802785905501  1.0000
  C   C21       1.0  0.15362800544584965  0.569096752195666  0.8307486515482267  1.0000
  O   O1        1.0  0.3847785393890708  0.7534122978538198  0.047857053677603074  1.0000
  C   C22       1.0  0.4638169723077934  0.8293902668593061  0.9806526959817639  1.0000
  H   H13       1.0  0.9276317574116453  0.47269468155771194  0.09538094613234183  1.0000
  H   H14       1.0  0.3586812525342866  0.7604595559912566  0.7562767045701406  1.0000
  H   H15       1.0  0.22590444032854884  0.6509074085815814  0.6343868036964149  1.0000
  H   H16       1.0  0.0008155606474820087  0.5036185609938522  0.5554185293959795  1.0000
  H   H17       1.0  0.43719506292385435  0.9269982245640118  0.916096064124885  1.0000
  H   H18       1.0  0.5046084278082532  0.7578189438134535  0.9103575621812295  1.0000
  H   H19       1.0  0.5130381707388296  0.863906951102985  0.06543774684297521  1.0000
  Zn  Zn1       1.0  0.04935972270536215  0.5652070129172622  0.4074846219392121  1.0000
  Zn  Zn2       1.0  0.26110657027923323  0.5653465028955091  0.4074739772823519  1.0000
  C   C23       1.0  0.15427469497600588  0.5619055879476568  0.6707443720602726  1.0000
  C   C24       1.0  0.1561938969838954  0.56864975093405  0.14421436549978228  1.0000
  C   C25       1.0  0.15340824312886925  0.8287113725170802  0.40129928049865327  1.0000
  C   C26       1.0  0.15706028843038378  0.30184223374031616  0.41365953678276535  1.0000
  O   O2        1.0  0.2363314074544949  0.5711102058514759  0.19790906640890604  1.0000
  O   O3        1.0  0.2348481515299652  0.5595499106219877  0.6170411789866017  1.0000
  O   O4        1.0  0.23414739175728472  0.7749989686929433  0.39946235875075753  1.0000
  O   O5        1.0  0.23703209531101588  0.35566115707773305  0.4154877785582829  1.0000
  O   O6        1.0  0.07343412541479014  0.7748923586889396  0.3994708206593294  1.0000
  O   O7        1.0  0.074134873329329  0.5594450331961954  0.6170495611698585  1.0000
  O   O8        1.0  0.0756181362610211  0.5710052625143105  0.19791571572725664  1.0000
  O   O9        1.0  0.07631882377491261  0.35555620439725555  0.41549453595914976  1.0000
