data_image0
_chemical_formula_structural       NC9NC3OH6C8H6C8H6Zn2C4O8
_chemical_formula_sum              "N2 C32 O9 H18 Zn2"
_cell_length_a       15.78231758774541
_cell_length_b       9.27514070457351
_cell_length_c       9.275144076552241
_cell_angle_alpha    86.09146216302537
_cell_angle_beta     90.54614249944106
_cell_angle_gamma    90.22379856908987

_space_group_name_H-M_alt    "P 1"
_space_group_IT_number       1

loop_
  _space_group_symop_operation_xyz
  'x, y, z'

loop_
  _atom_site_type_symbol
  _atom_site_label
  _atom_site_symmetry_multiplicity
  _atom_site_fract_x
  _atom_site_fract_y
  _atom_site_fract_z
  _atom_site_occupancy
  N   N1        1.0  0.7998630133398961  0.558119745707709  0.4164759311234443  1.0000
  C   C1        1.0  0.7509042127355863  0.4671926929964456  0.4429828967730378  1.0000
  C   C2        1.0  0.6901201703619226  0.3543301214541672  0.47588487312962213  1.0000
  C   C3        1.0  0.7091169322402385  0.21255593434059228  0.5171269170927553  1.0000
  C   C4        1.0  0.6320640610132526  0.14384718582407555  0.5371971737243693  1.0000
  C   C5        1.0  0.5707764133720451  0.24877662716934634  0.5067191598977943  1.0000
  C   C6        1.0  0.4775947676622244  0.22937748179158257  0.5124559343199477  1.0000
  C   C7        1.0  0.4244076772239175  0.34832688838038606  0.47772210919104335  1.0000
  C   C8        1.0  0.33612688675888575  0.3324201092372865  0.48243407466417687  1.0000
  C   C9        1.0  0.2822594909994486  0.45483034719539456  0.446680497790835  1.0000
  N   N2        1.0  0.23896291869041258  0.5532323755589148  0.41793780572314243  1.0000
  C   C10       1.0  0.3003510797198885  0.1973868996026236  0.52193381697978  1.0000
  C   C11       1.0  0.3526084143718325  0.07868345102436791  0.5566006670389041  1.0000
  C   C12       1.0  0.44070149459923186  0.09415323566283343  0.5520167350820107  1.0000
  O   O1        1.0  0.6078185962496488  0.37313090627763235  0.4704905775692163  1.0000
  H   H1        1.0  0.7713525301049955  0.16474420191855235  0.5309787734944449  1.0000
  H   H2        1.0  0.6228014167971062  0.03087115571856703  0.5700787750237559  1.0000
  H   H3        1.0  0.45150581139136375  0.4534066325753084  0.4469790650796459  1.0000
  H   H4        1.0  0.23217184542671992  0.18391466798914965  0.5259222509234106  1.0000
  H   H5        1.0  0.324783334859821  0.9743220897472419  0.5871340059135901  1.0000
  H   H6        1.0  0.4793469190614493  0.00013180824094427925  0.5794844786217979  1.0000
  C   C13       1.0  0.0168383990113876  0.1322569125599553  0.41619023632712365  1.0000
  C   C14       1.0  0.028311558904587697  0.2146486337287854  0.2847412469084343  1.0000
  C   C15       1.0  0.047198181417283686  0.1482375997068548  0.15848315651161027  1.0000
  C   C16       1.0  0.05506629003227246  0.9982393331108165  0.16124960388857512  1.0000
  C   C17       1.0  0.04249676184304807  0.9142624025835577  0.29033257164578696  1.0000
  C   C18       1.0  0.021995588066644464  0.9790841316724591  0.41823598327692735  1.0000
  C   C19       1.0  0.07508969971885103  0.930036483830115  0.03096625728605296  1.0000
  C   C20       1.0  0.09185502957429764  0.8729183760643446  0.9218911608515947  1.0000
  H   H7        1.0  0.032381291842968896  0.21107398796374574  0.7704198595826488  1.0000
  H   H8        1.0  0.024647279443542395  0.3314833181280461  0.2803140066369373  1.0000
  H   H9        1.0  0.05649550264010991  0.21417595717155558  0.058866316303269  1.0000
  H   H10       1.0  0.046767039299569366  0.7976063919758081  0.29016872622687395  1.0000
  H   H11       1.0  0.029209363477481032  0.6821517109850183  0.6568907258979295  1.0000
  H   H12       1.0  0.10657138852437842  0.8227789789987879  0.8261461320035814  1.0000
  C   C21       1.0  0.01740329046013732  0.552742182183843  0.9939138192837175  1.0000
  C   C22       1.0  0.9627327968921604  0.6473916338957735  0.05993079193643558  1.0000
  C   C23       1.0  0.9149044722095012  0.7491094703711845  0.9770787664136611  1.0000
  C   C24       1.0  0.9208830031903478  0.7582575929357203  0.8266902629188998  1.0000
  C   C25       1.0  0.9737938626819468  0.6635219807265391  0.7589113460546244  1.0000
  C   C26       1.0  0.021430718307749123  0.558598898791361  0.8405124088357905  1.0000
  C   C27       1.0  0.8718482118912821  0.8639527590493863  0.7414738010739789  1.0000
  C   C28       1.0  0.8307964252802401  0.9524444330135515  0.6701114981335419  1.0000
  H   H13       1.0  0.19238982775181346  0.3615030509501729  0.1126470112838498  1.0000
  H   H14       1.0  0.9584798981260827  0.6450149556085101  0.17658095051853806  1.0000
  H   H15       1.0  0.8738319021340858  0.8216660143020997  0.030553116653135436  1.0000
  H   H16       1.0  0.976259438402068  0.6694864092291114  0.6418492957955181  1.0000
  H   H17       1.0  0.13738457025570372  0.4252801692244319  0.5707680377074145  1.0000
  H   H18       1.0  0.7947614752182361  0.030121247185798332  0.6074687331409407  1.0000
  Zn  Zn1       1.0  0.9265777734105225  0.556705562323594  0.41690610460102906  1.0000
  Zn  Zn2       1.0  0.11224811451502509  0.5546348722784709  0.417519387368009  1.0000
  C   C29       1.0  0.02063257398845318  0.5517477084502117  0.6804732283481909  1.0000
  C   C30       1.0  0.018195353204079057  0.5595945238146549  0.1539524161938155  1.0000
  C   C31       1.0  0.02098909916507495  0.8189760708088363  0.412105083495524  1.0000
  C   C32       1.0  0.017838754486704453  0.29236443035067716  0.42232063350353566  1.0000
  O   O2        1.0  0.08892206520747198  0.5611021257287581  0.2078955537053271  1.0000
  O   O3        1.0  0.09082534616570759  0.5486674100858049  0.6269951406894334  1.0000
  O   O4        1.0  0.09111230203802329  0.7644577132163626  0.4102859654560813  1.0000
  O   O5        1.0  0.08863504552710227  0.34531183287167005  0.4246046206736067  1.0000
  O   O6        1.0  0.9501907790382437  0.766028602438537  0.4098208710785698  1.0000
  O   O7        1.0  0.949903833346479  0.550240031121475  0.6265299736380069  1.0000
  O   O8        1.0  0.9480005438940491  0.5626746845286459  0.20742865346074146  1.0000
  O   O9        1.0  0.9477135246615319  0.3468843821062307  0.4241378284772321  1.0000
