data_image0
_chemical_formula_structural       NC9NC3OCH8C12SCH12C12NH11Zn2C4O8
_chemical_formula_sum              "N3 C42 O9 H31 S1 Zn2"
_cell_length_a       17.728193572023454
_cell_length_b       10.299776766347529
_cell_length_c       10.299774167527174
_cell_angle_alpha    85.57893362728709
_cell_angle_beta     90.69829352168311
_cell_angle_gamma    88.43488659094776

_space_group_name_H-M_alt    "P 1"
_space_group_IT_number       1

loop_
  _space_group_symop_operation_xyz
  'x, y, z'

loop_
  _atom_site_type_symbol
  _atom_site_label
  _atom_site_symmetry_multiplicity
  _atom_site_fract_x
  _atom_site_fract_y
  _atom_site_fract_z
  _atom_site_occupancy
  N   N1        1.0  0.7104374061085996  0.3865075464588578  0.5852899777029046  1.0000
  C   C1        1.0  0.6498283100890885  0.3490834442973112  0.598293375289844  1.0000
  C   C2        1.0  0.5743783139845092  0.30256029646833804  0.6144772717840956  1.0000
  C   C3        1.0  0.5624934101647744  0.17452550997904687  0.6238926966917944  1.0000
  C   C4        1.0  0.4857873687160044  0.12507852616785864  0.6388410290454286  1.0000
  C   C5        1.0  0.4276289296856213  0.20775300225087737  0.6563131792554928  1.0000
  C   C6        1.0  0.3495836694524176  0.16271147912364767  0.6780449669185253  1.0000
  C   C7        1.0  0.2882352995750833  0.24816963593706043  0.6425877522913753  1.0000
  C   C8        1.0  0.2139634531186121  0.20887284267231698  0.662733605906607  1.0000
  C   C9        1.0  0.15163618844015322  0.2968672054285632  0.6252022134728059  1.0000
  N   N2        1.0  0.10153847780408432  0.3676061473423555  0.5950305217164726  1.0000
  C   C10       1.0  0.2004084567679325  0.08399834128765994  0.7193907148568698  1.0000
  C   C11       1.0  0.26085803083029213  0.9988581355854239  0.7562564480555863  1.0000
  C   C12       1.0  0.33502628864830203  0.03766534126598975  0.7362401558190665  1.0000
  O   O1        1.0  0.440970746142245  0.3415377409592344  0.6550226665542704  1.0000
  C   C13       1.0  0.5086921076569336  0.3989040405024427  0.6064171957697038  1.0000
  H   H1        1.0  0.6094282616700916  0.10506445469500325  0.6217890551918615  1.0000
  H   H2        1.0  0.47814644940344736  0.021429140530091265  0.6368547361502295  1.0000
  H   H3        1.0  0.2981186022510002  0.3449820335392304  0.5981665125393338  1.0000
  H   H4        1.0  0.1431962681671919  0.05271475509738233  0.7355290654676916  1.0000
  H   H5        1.0  0.2502379266116713  0.9027047326191422  0.8011388297629088  1.0000
  H   H6        1.0  0.3805625789688326  0.9704442639172793  0.7686565683638225  1.0000
  H   H7        1.0  0.4992254666030156  0.4348040442160626  0.5028964539908058  1.0000
  H   H8        1.0  0.521561152244335  0.4833056733954162  0.6630003451418369  1.0000
  C   C14       1.0  0.9060627237401617  0.9956881016576133  0.5901605199074939  1.0000
  C   C15       1.0  0.9105883198765713  0.9839478350186757  0.7267802980821054  1.0000
  C   C16       1.0  0.9128088178133574  0.8608638404842717  0.7960101758707477  1.0000
  C   C17       1.0  0.9104440179990544  0.7486670370231027  0.7267918937488009  1.0000
  C   C18       1.0  0.9059204374169769  0.7584152585215914  0.5901714164278582  1.0000
  C   C19       1.0  0.9037546876145944  0.8823636610143506  0.5226204821946807  1.0000
  C   C20       1.0  0.9175880713662232  0.8495082711238701  0.940538279119232  1.0000
  C   C21       1.0  0.8743926499773815  0.7581572316193741  0.013501463744164614  1.0000
  C   C22       1.0  0.878913151717306  0.7477036714693028  0.14951655623167304  1.0000
  C   C23       1.0  0.9264407966635261  0.8283322139426836  0.214370356878547  1.0000
  C   C24       1.0  0.9698162157081729  0.9191011721162481  0.14278465132715412  1.0000
  C   C25       1.0  0.9654063723079367  0.9298992699938096  0.006761900352970524  1.0000
  S   S1        1.0  0.9323244414400206  0.8144542985253509  0.38889850626996725  1.0000
  C   C26       1.0  0.8564900226191039  0.9341868484667644  0.4065375538874012  1.0000
  H   H9        1.0  0.9043679555523703  0.32761372329494054  0.5381029221660325  1.0000
  H   H10       1.0  0.9113561091464925  0.0707574097730548  0.7797551026508361  1.0000
  H   H11       1.0  0.9131795118232976  0.6535366498506354  0.7796195783214045  1.0000
  H   H12       1.0  0.9002638985912429  0.8906522643119289  0.4172241452350074  1.0000
  H   H13       1.0  0.9041590712964899  0.434677825967398  0.5381168255655459  1.0000
  H   H14       1.0  0.8364067254616634  0.6960150817513319  0.9654436356153117  1.0000
  H   H15       1.0  0.8451694480025235  0.6772886011804157  0.2043948637987197  1.0000
  H   H16       1.0  0.0069988568400423095  0.9813384875379765  0.1924113283620965  1.0000
  H   H17       1.0  0.00010244533195824628  0.9998997793415704  0.9533202840000765  1.0000
  H   H18       1.0  0.8716005237641482  0.02977187640087253  0.35803867492608965  1.0000
  H   H19       1.0  0.8477384097585948  0.9453202286985036  0.5115936019747396  1.0000
  H   H20       1.0  0.8033902565433501  0.9012081680763032  0.36309509912882676  1.0000
  C   C27       1.0  0.9060172656943873  0.37693592278985494  0.2088145036392155  1.0000
  C   C28       1.0  0.8321172858753323  0.33120599992872757  0.20979382447866035  1.0000
  C   C29       1.0  0.7946451367959512  0.3081513806350378  0.09314157839010684  1.0000
  C   C30       1.0  0.8320653972697075  0.3314398065245211  0.9744878255042688  1.0000
  C   C31       1.0  0.9059658575424911  0.3771674796895239  0.9715173722268083  1.0000
  C   C32       1.0  0.9425278478854174  0.39965997590779545  0.08918959222035648  1.0000
  C   C33       1.0  0.7164632410502205  0.2597723393747444  0.09523099173617976  1.0000
  C   C34       1.0  0.695272717164209  0.1623435026185831  0.1900001113157972  1.0000
  C   C35       1.0  0.621684401484033  0.11686484242826856  0.19183287621549439  1.0000
  C   C36       1.0  0.5681225662654995  0.16797863833746418  0.09919521148565735  1.0000
  C   C37       1.0  0.588815173344151  0.2650413816999797  0.004573048380546841  1.0000
  C   C38       1.0  0.6623808096840157  0.3106223988566825  0.002473440453237605  1.0000
  N   N3        1.0  0.4928588087972864  0.12140490945778604  0.10120642671098465  1.0000
  H   H21       1.0  0.9341893858264853  0.39430683074396145  0.5358992570958994  1.0000
  H   H22       1.0  0.8031475060042444  0.3151030928696481  0.30135767212764253  1.0000
  H   H23       1.0  0.8038068846156605  0.31213014782240545  0.8844532287755094  1.0000
  H   H24       1.0  0.9995384439075462  0.43493761124864566  0.08766610822815112  1.0000
  H   H25       1.0  0.9341139452493744  0.3946474234863051  0.6429276070034282  1.0000
  H   H26       1.0  0.7358746431042603  0.12011345887130775  0.26166037845998424  1.0000
  H   H27       1.0  0.6064752401371609  0.041553946079933894  0.2652709961429731  1.0000
  H   H28       1.0  0.5478985189842697  0.30562134116244133  0.9326348581921371  1.0000
  H   H29       1.0  0.6767075941565728  0.3868424259577899  0.9293453787569409  1.0000
  H   H30       1.0  0.45253790386563975  0.15890965353633635  0.03253834801883526  1.0000
  H   H31       1.0  0.47690188277872564  0.04907539472655496  0.17137884394758895  1.0000
  Zn  Zn1       1.0  0.8233007387569657  0.38104954289184567  0.5881083876200983  1.0000
  Zn  Zn2       1.0  0.988675172013081  0.37305355042761473  0.5922227488291434  1.0000
  C   C39       1.0  0.9059748660331947  0.3719500906254756  0.8273501131298012  1.0000
  C   C40       1.0  0.9060028503061952  0.3821545540348064  0.35298119573211184  1.0000
  C   C41       1.0  0.9059437767274465  0.6142422140270465  0.5849943067190976  1.0000
  C   C42       1.0  0.9060338834676668  0.13986087308154005  0.5953370699520879  1.0000
  O   O2        1.0  0.9687567489919493  0.3808658711483302  0.40292623313337095  1.0000
  O   O3        1.0  0.9687363358929094  0.36716902041116717  0.7805274068434848  1.0000
  O   O4        1.0  0.9687103847765738  0.5628230155756184  0.5848233574301178  1.0000
  O   O5        1.0  0.9687826436820213  0.1852118879730251  0.5986301837727088  1.0000
  O   O6        1.0  0.8431932106538478  0.5688912080764863  0.5817009512656734  1.0000
  O   O7        1.0  0.8432191614802823  0.3732387731937816  0.7774049314589084  1.0000
  O   O8        1.0  0.8432395747431687  0.3869355781986415  0.3998021964202034  1.0000
  O   O9        1.0  0.8432654694253268  0.19128158576424134  0.5955062444227109  1.0000
