data_image0
_chemical_formula_structural       NC9NC3SH6C8H4C7NC2NH8Zn2C4O8
_chemical_formula_sum              "N4 C33 S1 H18 Zn2 O8"
_cell_length_a       16.77567553997237
_cell_length_b       9.27514070457351
_cell_length_c       9.27399911348925
_cell_angle_alpha    85.20391567868208
_cell_angle_beta     90.06803896743476
_cell_angle_gamma    91.48491386358626

_space_group_name_H-M_alt    "P 1"
_space_group_IT_number       1

loop_
  _space_group_symop_operation_xyz
  'x, y, z'

loop_
  _atom_site_type_symbol
  _atom_site_label
  _atom_site_symmetry_multiplicity
  _atom_site_fract_x
  _atom_site_fract_y
  _atom_site_fract_z
  _atom_site_occupancy
  N   N1        1.0  0.7650580854224642  0.6128277216096938  0.41977864798931547  1.0000
  C   C1        1.0  0.7104711856209261  0.6672017900018805  0.46615285187126204  1.0000
  C   C2        1.0  0.6427280344701548  0.7346764180804364  0.5236996922591255  1.0000
  C   C3        1.0  0.6450765386237439  0.8315763126710609  0.6295925661268884  1.0000
  C   C4        1.0  0.569600948224806  0.879546849401916  0.6647387161711673  1.0000
  C   C5        1.0  0.507511059175494  0.8202148267793307  0.5861052877178257  1.0000
  C   C6        1.0  0.4211466145513466  0.8490540047968889  0.5982398795194794  1.0000
  C   C7        1.0  0.36403614734502243  0.761238102802574  0.5332330917692818  1.0000
  C   C8        1.0  0.2825124659175908  0.7878549501780936  0.5441876127380203  1.0000
  C   C9        1.0  0.224722640722372  0.6970891588897334  0.477622419310524  1.0000
  N   N2        1.0  0.1782766874973493  0.6241264671514297  0.42411383775685896  1.0000
  C   C10       1.0  0.25727200693263635  0.9026374420708512  0.6199707642557455  1.0000
  C   C11       1.0  0.3132935164324425  0.9906341692677707  0.6844650074716608  1.0000
  C   C12       1.0  0.3946607793098442  0.964417847670302  0.6738389345343276  1.0000
  S   S1        1.0  0.5478151240080601  0.7078287523274174  0.47344151825654296  1.0000
  H   H1        1.0  0.6995152650188154  0.8665137537279038  0.6805496130253375  1.0000
  H   H2        1.0  0.5614998591864023  0.9542368458867542  0.746601127124821  1.0000
  H   H3        1.0  0.3825074571218068  0.6714663510912984  0.4747094501429179  1.0000
  H   H4        1.0  0.19438212764078142  0.9241678049346512  0.6290155713972002  1.0000
  H   H5        1.0  0.2936388231126006  0.07972990505789568  0.7426340543217922  1.0000
  H   H6        1.0  0.43634913165163725  0.035766334585135784  0.7237686123988218  1.0000
  C   C13       1.0  0.9692524221696078  0.19497907570356432  0.42091156315745387  1.0000
  C   C14       1.0  0.9810722884795022  0.2798846170981495  0.28937754746800237  1.0000
  C   C15       1.0  0.9998284630260224  0.21617852604345855  0.16308923339989434  1.0000
  C   C16       1.0  0.007211493365908869  0.06642671882807694  0.1659105045244964  1.0000
  C   C17       1.0  0.994378259488853  0.9799331198897293  0.29506844765119483  1.0000
  C   C18       1.0  0.974089855816804  0.04196414113469983  0.42299352765200743  1.0000
  C   C19       1.0  0.027068796378571625  0.0010347862220012622  0.0355994672066986  1.0000
  C   C20       1.0  0.04369497434348513  0.9462700716801321  0.9265011971398714  1.0000
  H   H7        1.0  0.981123732029085  0.26873699289870867  0.7756741565828508  1.0000
  H   H8        1.0  0.009353031793487123  0.2840441910276392  0.06341189763639841  1.0000
  H   H9        1.0  0.9790219225073661  0.7415029531133739  0.6619860418067238  1.0000
  H   H10       1.0  0.05828919186512316  0.898196456700648  0.8307358261863556  1.0000
  C   C21       1.0  0.9730692895171538  0.6222001955183143  0.9981246598371472  1.0000
  C   C22       1.0  0.03526471053973257  0.5548556004781473  0.07709609714325859  1.0000
  C   C23       1.0  0.09212355771101402  0.4770996900467661  0.00885023119215544  1.0000
  C   C24       1.0  0.08831170700344004  0.46399173435904206  0.8594826556476839  1.0000
  C   C25       1.0  0.02733019645304724  0.5338045766282339  0.7789711503948061  1.0000
  C   C26       1.0  0.9702730077049533  0.6147430246964638  0.845780351633783  1.0000
  C   C27       1.0  0.14901027543815548  0.37941369831911564  0.7892170739855735  1.0000
  N   N3        1.0  0.2154917947968924  0.3308502428414564  0.8578325346048453  1.0000
  C   C28       1.0  0.2536781392138612  0.2597463792724857  0.7587371161736787  1.0000
  C   C29       1.0  0.21016608395504704  0.2657427871600895  0.632755773815223  1.0000
  N   N4        1.0  0.14433711332397525  0.34093716262652557  0.6520828710988655  1.0000
  H   H11       1.0  0.8892344419782211  0.8019089022383765  0.2642588279826532  1.0000
  H   H12       1.0  0.03890107035213197  0.5592459602410969  0.19329569127390855  1.0000
  H   H13       1.0  0.13857909044569428  0.42525084210456043  0.0739379327370171  1.0000
  H   H14       1.0  0.025335613389015018  0.529848526616018  0.6628358706174966  1.0000
  H   H15       1.0  0.8463330008871162  0.6927359768893164  0.5589131031997008  1.0000
  H   H16       1.0  0.30976823064814996  0.2064000788693161  0.7775623917488246  1.0000
  H   H17       1.0  0.22519563428727785  0.21800617326899513  0.5341052958898345  1.0000
  H   H18       1.0  0.09935442281222762  0.3615630389880402  0.5759579595816637  1.0000
  Zn  Zn1       1.0  0.8843040013275115  0.6160843717271871  0.42103802406196333  1.0000
  Zn  Zn2       1.0  0.05903066033511695  0.6208579480713743  0.4228662852603148  1.0000
  C   C30       1.0  0.9707669722873516  0.6104073318933567  0.6855411694622571  1.0000
  C   C31       1.0  0.9725696073102809  0.6265368584213271  0.15836330595499937  1.0000
  C   C32       1.0  0.9731903626042864  0.8819164186969135  0.41684858049035567  1.0000
  C   C33       1.0  0.9701461472215973  0.3550260366454556  0.4270559669912441  1.0000
  O   O1        1.0  0.03870972996088495  0.6297975378263869  0.2128346595218633  1.0000
  O   O2        1.0  0.037240336080696095  0.610768602184792  0.632457005700181  1.0000
  O   O3        1.0  0.03919635559730738  0.8300155858567173  0.4154858333935312  1.0000
  O   O4        1.0  0.03675365123780838  0.41055056379407795  0.4298057230143266  1.0000
  O   O5        1.0  0.9065809507992207  0.8263917543771331  0.4140985856764676  1.0000
  O   O6        1.0  0.904624941428759  0.6071465040501716  0.6310696852872906  1.0000
  O   O7        1.0  0.9060943407992186  0.6261754047034849  0.21144560374985927  1.0000
  O   O8        1.0  0.9041382616570077  0.4069284194042093  0.4284167754250261  1.0000
