data_image0
_chemical_formula_structural       NC9NC3OH6C9H9C6NCOCH7Zn2C4O8
_chemical_formula_sum              "N3 C33 O10 H22 Zn2"
_cell_length_a       15.78231758774541
_cell_length_b       9.272676604525723
_cell_length_c       10.300272075376752
_cell_angle_alpha    85.79057383563607
_cell_angle_beta     90.08212328067073
_cell_angle_gamma    90.18380166211226

_space_group_name_H-M_alt    "P 1"
_space_group_IT_number       1

loop_
  _space_group_symop_operation_xyz
  'x, y, z'

loop_
  _atom_site_type_symbol
  _atom_site_label
  _atom_site_symmetry_multiplicity
  _atom_site_fract_x
  _atom_site_fract_y
  _atom_site_fract_z
  _atom_site_occupancy
  N   N1        1.0  0.8067836831922419  0.5698053150157019  0.5761763670154915  1.0000
  C   C1        1.0  0.757735549589925  0.47867507622930733  0.5998951816747995  1.0000
  C   C2        1.0  0.6968406213942384  0.36556029855422145  0.6293363463942441  1.0000
  C   C3        1.0  0.715698513731573  0.22346994011775376  0.6662397875763029  1.0000
  C   C4        1.0  0.6385779457218002  0.154607361550114  0.6841991875229503  1.0000
  C   C5        1.0  0.5773928586235639  0.25977047304734663  0.6569276958551423  1.0000
  C   C6        1.0  0.4841917646191612  0.24032738578587184  0.6620615398967675  1.0000
  C   C7        1.0  0.4311218141821064  0.35954301731148375  0.6309808615294423  1.0000
  C   C8        1.0  0.34282503862565256  0.3436001491457486  0.6351976509344872  1.0000
  C   C9        1.0  0.289078234827738  0.46628442447822915  0.6032044180541509  1.0000
  N   N2        1.0  0.2458786097220512  0.5649067539156195  0.5774846990241811  1.0000
  C   C10       1.0  0.3069159213772464  0.20826421293152195  0.6705434097346439  1.0000
  C   C11       1.0  0.3590563351163001  0.08929505470095699  0.7015641865699906  1.0000
  C   C12       1.0  0.4471649680408471  0.1047999471930745  0.6974619672970392  1.0000
  O   O1        1.0  0.6145571056692792  0.38440246740077316  0.6245099786893828  1.0000
  H   H1        1.0  0.777887549339966  0.17555199334693494  0.6786341044723323  1.0000
  H   H2        1.0  0.629204559318849  0.04137926006553271  0.7136217954958386  1.0000
  H   H3        1.0  0.4583237123576782  0.46485837452989415  0.6034708724867177  1.0000
  H   H4        1.0  0.23872315979331998  0.19476143290410808  0.6741126887454734  1.0000
  H   H5        1.0  0.33112819873545574  0.9846996877581085  0.7288865266267284  1.0000
  H   H6        1.0  0.4857177391765246  0.010567992501481216  0.7220408566617484  1.0000
  C   C13       1.0  0.02393455717478221  0.14389478520918786  0.5751644660749344  1.0000
  C   C14       1.0  0.9900125914577859  0.20834549943355474  0.6826124762106482  1.0000
  C   C15       1.0  0.9638424522986295  0.12447293088384884  0.7932573672199126  1.0000
  C   C16       1.0  0.9707497608968298  0.9736448737381584  0.8001774879866106  1.0000
  C   C17       1.0  0.003283600195812528  0.9077602282088807  0.6917248259702216  1.0000
  C   C18       1.0  0.02873578550475341  0.9908060979917716  0.5785078086342865  1.0000
  C   C19       1.0  0.9415494097479656  0.8903237285876836  0.9248361056802893  1.0000
  C   C20       1.0  0.898728440991119  0.7447101941361635  0.911778820818434  1.0000
  C   C21       1.0  0.9881912147499272  0.7511420314182036  0.966992516430736  1.0000
  H   H7        1.0  0.04276214642444143  0.44256288541160527  0.36242189295832916  1.0000
  H   H8        1.0  0.9855419415515158  0.32491793161721794  0.6824743186102147  1.0000
  H   H9        1.0  0.9387376106870094  0.17817946504453142  0.8747766806027115  1.0000
  H   H10       1.0  0.050739805483760635  0.9138230680838254  0.2606027861645084  1.0000
  H   H11       1.0  0.9175600005262706  0.9506942400562509  0.006527832912005428  1.0000
  H   H12       1.0  0.894802264493425  0.7055280051838159  0.8127686956881544  1.0000
  H   H13       1.0  0.8496200794548111  0.716457425117182  0.9865501421676222  1.0000
  H   H14       1.0  0.03858307935967417  0.7157386307583992  0.9015983624591215  1.0000
  H   H15       1.0  0.9913673595559837  0.7266423262155943  0.07405073509019355  1.0000
  C   C22       1.0  0.026342937560804185  0.5674968136635068  0.1954839972787732  1.0000
  C   C23       1.0  0.9398239398341695  0.6025765691060336  0.19192123208245948  1.0000
  C   C24       1.0  0.8964936081422205  0.6221985780013066  0.07271981184225806  1.0000
  C   C25       1.0  0.9398306398928422  0.6022477038715197  0.9567860007912841  1.0000
  C   C26       1.0  0.026327401777387557  0.567204035141655  0.9581882936034264  1.0000
  C   C27       1.0  0.06920194992800183  0.550550238578084  0.07804270772371624  1.0000
  N   N3        1.0  0.8076028892037124  0.655894459864665  0.06760184315328432  1.0000
  C   C28       1.0  0.7660523715060805  0.7461306147476956  0.1552828269757407  1.0000
  O   O2        1.0  0.8085448200371702  0.8227880199831283  0.22797538830717867  1.0000
  C   C29       1.0  0.6716653412658924  0.7577904695099626  0.1539308542686526  1.0000
  H   H16       1.0  0.9057666188542652  0.6118121738414197  0.28199770248951594  1.0000
  H   H17       1.0  0.9057335912716583  0.6154397049229325  0.8653655105586107  1.0000
  H   H18       1.0  0.13593679603999798  0.5235332726267827  0.07997913047115524  1.0000
  H   H19       1.0  0.7719995700003226  0.6203277051721583  0.9903976161638686  1.0000
  H   H20       1.0  0.6429204504541992  0.6503389607272052  0.14104583495854328  1.0000
  H   H21       1.0  0.6486690564441774  0.796567527980387  0.2470588312856745  1.0000
  H   H22       1.0  0.6517455179391868  0.8350859333525431  0.07231198702756392  1.0000
  Zn  Zn1       1.0  0.9334969683818725  0.5683878413678021  0.576561401302587  1.0000
  Zn  Zn2       1.0  0.1191652291019209  0.5663124541383397  0.5771102341275047  1.0000
  C   C30       1.0  0.02629585912217425  0.5615147320392457  0.8139981404717149  1.0000
  C   C31       1.0  0.026368376165393444  0.5731873602314355  0.3396736355951504  1.0000
  C   C32       1.0  0.027823972240242887  0.8307238792096217  0.5727008763406419  1.0000
  C   C33       1.0  0.02484018986855928  0.30397648122702403  0.5809709619351272  1.0000
  O   O3        1.0  0.09683701525390087  0.5743032699275323  0.388273249764423  1.0000
  O   O4        1.0  0.09674512768956345  0.5588225637446285  0.7658146995933475  1.0000
  O   O5        1.0  0.09797814849412795  0.7762123647979979  0.5709654547007093  1.0000
  O   O6        1.0  0.09560393115380188  0.35691347993532196  0.5831223971401209  1.0000
  O   O7        1.0  0.9570582029705353  0.7777868162806203  0.5705492380958563  1.0000
  O   O8        1.0  0.9558251919852795  0.560398747771087  0.7653984205854774  1.0000
  O   O9        1.0  0.9559170793529472  0.5758794043016684  0.38785540922636885  1.0000
  O   O10       1.0  0.9546839951889261  0.35848960395809937  0.5827046539248932  1.0000
