data_image0
_chemical_formula_structural       Pr8H16C56N16O48
_chemical_formula_sum              "Pr8 H16 C56 N16 O48"
_cell_length_a       11.008
_cell_length_b       12.002
_cell_length_c       19.473
_cell_angle_alpha    90.0
_cell_angle_beta     90.0
_cell_angle_gamma    90.0

_space_group_name_H-M_alt    "P 1"
_space_group_IT_number       1

loop_
  _space_group_symop_operation_xyz
  'x, y, z'

loop_
  _atom_site_type_symbol
  _atom_site_label
  _atom_site_symmetry_multiplicity
  _atom_site_fract_x
  _atom_site_fract_y
  _atom_site_fract_z
  _atom_site_occupancy
  Pr  Pr1       1.0  0.8638000000000001  0.65899  0.64838  1.0000
  Pr  Pr2       1.0  0.38227999999999995  0.47716999999999987  0.8624799999999999  1.0000
  Pr  Pr3       1.0  0.1362  0.3410099999999999  0.14838  1.0000
  Pr  Pr4       1.0  0.61772  0.52283  0.36247999999999997  1.0000
  Pr  Pr5       1.0  0.6362  0.15898999999999996  0.64838  1.0000
  Pr  Pr6       1.0  0.11772  0.9771699999999998  0.8624799999999999  1.0000
  Pr  Pr7       1.0  0.3638  0.84101  0.14838  1.0000
  Pr  Pr8       1.0  0.88228  0.022829999999999996  0.36247999999999997  1.0000
  H   H1        1.0  0.6511  0.5079999999999999  0.7566  1.0000
  H   H2        1.0  0.7687000000000002  0.7606  0.9159  1.0000
  H   H3        1.0  0.1296  0.6016  0.7597  1.0000
  H   H4        1.0  0.994  0.2448  0.7485  1.0000
  H   H5        1.0  0.3489  0.492  0.2566  1.0000
  H   H6        1.0  0.2313  0.23939999999999997  0.4159  1.0000
  H   H7        1.0  0.8704  0.3984  0.2597  1.0000
  H   H8        1.0  0.006  0.7552  0.24849999999999997  1.0000
  H   H9        1.0  0.8489000000000001  0.008  0.7566  1.0000
  H   H10       1.0  0.7312999999999998  0.2606  0.9159  1.0000
  H   H11       1.0  0.3704  0.10159999999999998  0.7597  1.0000
  H   H12       1.0  0.506  0.7448  0.7485  1.0000
  H   H13       1.0  0.1511  0.9919999999999999  0.2566  1.0000
  H   H14       1.0  0.2687  0.7393999999999998  0.4159  1.0000
  H   H15       1.0  0.6296  0.8983999999999998  0.2597  1.0000
  H   H16       1.0  0.494  0.2551999999999999  0.24849999999999997  1.0000
  C   C1        1.0  0.6726  0.5627999999999999  0.7880999999999999  1.0000
  C   C2        1.0  0.6363  0.6504  0.8897999999999999  1.0000
  C   C3        1.0  0.7425  0.7116  0.882  1.0000
  C   C4        1.0  0.8074  0.6972999999999998  0.8225999999999999  1.0000
  C   C5        1.0  0.9138  0.7715  0.8043  1.0000
  C   C6        1.0  0.5532  0.6693  0.9506  1.0000
  C   C7        1.0  0.1017  0.5285  0.7582  1.0000
  C   C8        1.0  0.1261  0.3463  0.7871999999999999  1.0000
  C   C9        1.0  0.0208  0.3181  0.7519  1.0000
  C   C10       1.0  0.9588000000000001  0.4052  0.7225  1.0000
  C   C11       1.0  0.8394  0.3855  0.6845  1.0000
  C   C12       1.0  0.2034  0.2569  0.8222  1.0000
  C   C13       1.0  0.3223  0.38349999999999995  0.017800000000000003  1.0000
  C   C14       1.0  0.2001  0.43549999999999994  0.9938  1.0000
  C   C15       1.0  0.3274  0.4372  0.2881  1.0000
  C   C16       1.0  0.3637  0.3495999999999999  0.3898  1.0000
  C   C17       1.0  0.2575  0.2884  0.382  1.0000
  C   C18       1.0  0.1926  0.3027  0.3226  1.0000
  C   C19       1.0  0.0862  0.2285  0.3043  1.0000
  C   C20       1.0  0.4468  0.3307  0.45060000000000006  1.0000
  C   C21       1.0  0.8983000000000001  0.47149999999999986  0.2582  1.0000
  C   C22       1.0  0.8739  0.6537  0.2872  1.0000
  C   C23       1.0  0.9792  0.6819  0.25189999999999996  1.0000
  C   C24       1.0  0.0412  0.5947999999999999  0.2225  1.0000
  C   C25       1.0  0.1606  0.6145  0.1845  1.0000
  C   C26       1.0  0.7966  0.7430999999999999  0.3222  1.0000
  C   C27       1.0  0.6777  0.6164999999999999  0.5178  1.0000
  C   C28       1.0  0.7999  0.5645  0.49379999999999996  1.0000
  C   C29       1.0  0.8274  0.0628  0.7880999999999999  1.0000
  C   C30       1.0  0.8637000000000001  0.1504  0.8897999999999999  1.0000
  C   C31       1.0  0.7575000000000001  0.2116  0.882  1.0000
  C   C32       1.0  0.6926  0.1973  0.8225999999999999  1.0000
  C   C33       1.0  0.5862  0.2715  0.8043  1.0000
  C   C34       1.0  0.9468  0.16929999999999995  0.9506  1.0000
  C   C35       1.0  0.3983  0.0285  0.7582  1.0000
  C   C36       1.0  0.37390000000000007  0.8463  0.7871999999999999  1.0000
  C   C37       1.0  0.4792  0.8181  0.7519  1.0000
  C   C38       1.0  0.5412  0.9052  0.7225  1.0000
  C   C39       1.0  0.6606  0.8854999999999998  0.6845  1.0000
  C   C40       1.0  0.2966  0.7568999999999998  0.8222  1.0000
  C   C41       1.0  0.1777  0.8834999999999998  0.017800000000000003  1.0000
  C   C42       1.0  0.2999  0.9354999999999998  0.9938  1.0000
  C   C43       1.0  0.1726  0.9372  0.2881  1.0000
  C   C44       1.0  0.1363  0.8495999999999998  0.3898  1.0000
  C   C45       1.0  0.2425  0.7884  0.382  1.0000
  C   C46       1.0  0.3074  0.8026999999999999  0.3226  1.0000
  C   C47       1.0  0.4138  0.7285  0.3043  1.0000
  C   C48       1.0  0.053200000000000004  0.8307  0.45060000000000006  1.0000
  C   C49       1.0  0.6017  0.9714999999999999  0.2582  1.0000
  C   C50       1.0  0.6261  0.1537  0.2872  1.0000
  C   C51       1.0  0.5208  0.18189999999999998  0.25189999999999996  1.0000
  C   C52       1.0  0.4588  0.0948  0.2225  1.0000
  C   C53       1.0  0.3394  0.1145  0.1845  1.0000
  C   C54       1.0  0.7034  0.2431  0.3222  1.0000
  C   C55       1.0  0.8223  0.11649999999999999  0.5178  1.0000
  C   C56       1.0  0.7001  0.0645  0.49379999999999996  1.0000
  N   N1        1.0  0.7726  0.6225  0.7749  1.0000
  N   N2        1.0  0.6012  0.5758999999999999  0.8428999999999999  1.0000
  N   N3        1.0  0.9996000000000002  0.5094  0.7231  1.0000
  N   N4        1.0  0.1667  0.45249999999999996  0.7912  1.0000
  N   N5        1.0  0.2274  0.3774999999999999  0.2749  1.0000
  N   N6        1.0  0.3988  0.4241  0.3429  1.0000
  N   N7        1.0  0.0004000000000000001  0.49059999999999987  0.22309999999999997  1.0000
  N   N8        1.0  0.8333  0.5475  0.2912  1.0000
  N   N9        1.0  0.7274  0.12249999999999997  0.7749  1.0000
  N   N10       1.0  0.8988  0.0759  0.8428999999999999  1.0000
  N   N11       1.0  0.5004  0.009399999999999997  0.7231  1.0000
  N   N12       1.0  0.3333  0.9524999999999998  0.7912  1.0000
  N   N13       1.0  0.2726  0.8775  0.2749  1.0000
  N   N14       1.0  0.1012  0.9241  0.3429  1.0000
  N   N15       1.0  0.4996  0.9906  0.22309999999999997  1.0000
  N   N16       1.0  0.6667  0.04749999999999999  0.2912  1.0000
  O   O1        1.0  0.9553000000000001  0.7626999999999999  0.7443999999999998  1.0000
  O   O2        1.0  0.9491000000000002  0.8384999999999999  0.8498  1.0000
  O   O3        1.0  0.45830000000000004  0.6085999999999999  0.9529  1.0000
  O   O4        1.0  0.5842  0.7398999999999998  0.9918  1.0000
  O   O5        1.0  0.7914  0.4655999999999999  0.6531999999999999  1.0000
  O   O6        1.0  0.7946000000000001  0.28889999999999993  0.6909  1.0000
  O   O7        1.0  0.2995  0.28659999999999997  0.8503  1.0000
  O   O8        1.0  0.1658  0.15879999999999997  0.8178999999999998  1.0000
  O   O9        1.0  0.40780000000000005  0.3811  0.9747  1.0000
  O   O10       1.0  0.326  0.34779999999999994  0.0781  1.0000
  O   O11       1.0  0.204  0.4893  0.9383999999999999  1.0000
  O   O12       1.0  0.11060000000000002  0.42139999999999994  0.0317  1.0000
  O   O13       1.0  0.04469999999999999  0.2373  0.24439999999999998  1.0000
  O   O14       1.0  0.05090000000000001  0.1615  0.3498  1.0000
  O   O15       1.0  0.5417  0.39139999999999997  0.45289999999999997  1.0000
  O   O16       1.0  0.41580000000000006  0.26009999999999994  0.4918  1.0000
  O   O17       1.0  0.2086  0.5344  0.1532  1.0000
  O   O18       1.0  0.20540000000000003  0.7110999999999998  0.1909  1.0000
  O   O19       1.0  0.7005  0.7134  0.3503  1.0000
  O   O20       1.0  0.8342000000000002  0.8412  0.3179  1.0000
  O   O21       1.0  0.5922  0.6188999999999999  0.4747  1.0000
  O   O22       1.0  0.674  0.6522  0.5781  1.0000
  O   O23       1.0  0.7960000000000002  0.5107  0.43840000000000007  1.0000
  O   O24       1.0  0.8894000000000001  0.5786  0.5317  1.0000
  O   O25       1.0  0.5447  0.2627  0.7443999999999998  1.0000
  O   O26       1.0  0.5509  0.3385  0.8498  1.0000
  O   O27       1.0  0.0417  0.1086  0.9529  1.0000
  O   O28       1.0  0.9158  0.2399  0.9918  1.0000
  O   O29       1.0  0.7086  0.9655999999999998  0.6531999999999999  1.0000
  O   O30       1.0  0.7054  0.7888999999999998  0.6909  1.0000
  O   O31       1.0  0.20049999999999998  0.7866  0.8503  1.0000
  O   O32       1.0  0.3342  0.6587999999999999  0.8178999999999998  1.0000
  O   O33       1.0  0.0922  0.8810999999999999  0.9747  1.0000
  O   O34       1.0  0.174  0.8477999999999998  0.0781  1.0000
  O   O35       1.0  0.296  0.9892999999999997  0.9383999999999999  1.0000
  O   O36       1.0  0.3894000000000001  0.9214  0.0317  1.0000
  O   O37       1.0  0.45530000000000004  0.7372999999999997  0.24439999999999998  1.0000
  O   O38       1.0  0.44910000000000005  0.6614999999999999  0.3498  1.0000
  O   O39       1.0  0.9583  0.8914  0.45289999999999997  1.0000
  O   O40       1.0  0.0842  0.7600999999999999  0.4918  1.0000
  O   O41       1.0  0.2914  0.034399999999999986  0.1532  1.0000
  O   O42       1.0  0.2946  0.2111  0.1909  1.0000
  O   O43       1.0  0.7995000000000001  0.21339999999999998  0.3503  1.0000
  O   O44       1.0  0.6658  0.34119999999999995  0.3179  1.0000
  O   O45       1.0  0.9078  0.11889999999999998  0.4747  1.0000
  O   O46       1.0  0.826  0.1522  0.5781  1.0000
  O   O47       1.0  0.704  0.010699999999999998  0.43840000000000007  1.0000
  O   O48       1.0  0.6106  0.0786  0.5317  1.0000
