data_image0
_chemical_formula_structural       NC9NC3SH6C9H10C8H6Zn2C4O8
_chemical_formula_sum              "N2 C33 S1 H22 Zn2 O8"
_cell_length_a       16.77567553997237
_cell_length_b       9.272676604525723
_cell_length_c       9.275144076552241
_cell_angle_alpha    86.20425915631827
_cell_angle_beta     90.85075607413872
_cell_angle_gamma    91.44448428757873

_space_group_name_H-M_alt    "P 1"
_space_group_IT_number       1

loop_
  _space_group_symop_operation_xyz
  'x, y, z'

loop_
  _atom_site_type_symbol
  _atom_site_label
  _atom_site_symmetry_multiplicity
  _atom_site_fract_x
  _atom_site_fract_y
  _atom_site_fract_z
  _atom_site_occupancy
  N   N1        1.0  0.7521821806027339  0.5879145243736998  0.4248187795174181  1.0000
  C   C1        1.0  0.697934907652884  0.6430315470783425  0.4712448232871976  1.0000
  C   C2        1.0  0.630613207237487  0.711428124704681  0.5288559941261017  1.0000
  C   C3        1.0  0.6337474790681021  0.8100213412135484  0.6348137018624336  1.0000
  C   C4        1.0  0.55852674348816  0.8585557360823768  0.6700124199892348  1.0000
  C   C5        1.0  0.495848616797899  0.7979677634828508  0.5913556401887583  1.0000
  C   C6        1.0  0.4095675478937928  0.82700304832805  0.6035324936155648  1.0000
  C   C7        1.0  0.3519853552938328  0.7381443328213185  0.5384302645435288  1.0000
  C   C8        1.0  0.2705367225210349  0.7649382836846919  0.5494240807806299  1.0000
  C   C9        1.0  0.21226418084687526  0.6731045812529113  0.48275949904909443  1.0000
  N   N2        1.0  0.1654301950387416  0.5992834466752972  0.4291710231870811  1.0000
  C   C10       1.0  0.2458415228016237  0.8809379033554161  0.6253428668995915  1.0000
  C   C11       1.0  0.3023307100893154  0.9699693236404932  0.6899335139288925  1.0000
  C   C12       1.0  0.38362532394251747  0.9435811623670833  0.6792685431639631  1.0000
  S   S1        1.0  0.5353201640391393  0.6837790133147286  0.4786046449827479  1.0000
  H   H1        1.0  0.6885687230641284  0.8457722704962776  0.6857789842340356  1.0000
  H   H2        1.0  0.5510331892340432  0.9345547602276005  0.7519245194107576  1.0000
  H   H3        1.0  0.3700360130128709  0.6474325209384056  0.4797996579670745  1.0000
  H   H4        1.0  0.1830137766582156  0.9026144431184839  0.6344192423015189  1.0000
  H   H5        1.0  0.28309416975727275  0.05999940840600626  0.7482086182034531  1.0000
  H   H6        1.0  0.4256745275723577  0.01573105550744547  0.7292791858840217  1.0000
  C   C13       1.0  0.9565424112856411  0.17003524915558899  0.4251296895405119  1.0000
  C   C14       1.0  0.9251534537410101  0.23411756223564684  0.5441778770419163  1.0000
  C   C15       1.0  0.9010758431784411  0.15018999524325038  0.6668259457888925  1.0000
  C   C16       1.0  0.9076109600316405  0.9996748272299624  0.6745532166535522  1.0000
  C   C17       1.0  0.9376885134157038  0.9340988918034532  0.5543806516018108  1.0000
  C   C18       1.0  0.9610776181676207  0.017151933896224495  0.4288726628425834  1.0000
  C   C19       1.0  0.8807514234720641  0.9163022459585012  0.8127371524360647  1.0000
  C   C20       1.0  0.8403866031259798  0.7689954933509597  0.7979601569664647  1.0000
  C   C21       1.0  0.9248571978249506  0.7791955789016578  0.8598407481642929  1.0000
  H   H7        1.0  0.9732007478288711  0.46764319852357605  0.1891000127611302  1.0000
  H   H8        1.0  0.9209453418147915  0.3505233356574715  0.543994989487665  1.0000
  H   H9        1.0  0.8778555904801321  0.2036404006573722  0.7571503219598954  1.0000
  H   H10       1.0  0.9414985581490902  0.8178128703812092  0.5557593027597643  1.0000
  H   H11       1.0  0.9802010351233288  0.9383577355176274  0.07612881798283522  1.0000
  H   H12       1.0  0.8585817873968918  0.9764593496193194  0.9032602827349955  1.0000
  H   H13       1.0  0.8361979444511608  0.7288501426334314  0.6880284422634981  1.0000
  H   H14       1.0  0.794542486064157  0.7395421723436933  0.8806354216469386  1.0000
  H   H15       1.0  0.9719560000302259  0.7451177029569721  0.7875830466307896  1.0000
  H   H16       1.0  0.9283801125260218  0.7556977424341949  0.9787012626053818  1.0000
  C   C22       1.0  0.9569159537957663  0.590590364672035  0.0036828443650944705  1.0000
  C   C23       1.0  0.9054288120047409  0.6832267560172136  0.069524640682046  1.0000
  C   C24       1.0  0.8603783224436061  0.7831856734216966  0.9865565101674645  1.0000
  C   C25       1.0  0.8660014048793221  0.7925562046921333  0.8362254587902305  1.0000
  C   C26       1.0  0.9158325502537015  0.6997684956001862  0.7686099275896701  1.0000
  C   C27       1.0  0.9607040493076184  0.5965968709513709  0.8503195356479365  1.0000
  C   C28       1.0  0.8198139887465342  0.8964482473634712  0.7508927354314099  1.0000
  C   C29       1.0  0.7811460149586342  0.9834303520179114  0.6794331065098973  1.0000
  H   H17       1.0  0.12167138117638811  0.4058075344331777  0.12319613248636485  1.0000
  H   H18       1.0  0.9014272126662584  0.6806923453827445  0.18614204327875417  1.0000
  H   H19       1.0  0.8216967799882013  0.8542300242039773  0.039902100263919944  1.0000
  H   H20       1.0  0.9181507132304128  0.7058249015997267  0.6515758754033723  1.0000
  H   H21       1.0  0.06988079297108896  0.4675556057105419  0.5810791377862312  1.0000
  H   H22       1.0  0.7472035580874362  0.05978207752455855  0.6167049084946616  1.0000
  Zn  Zn1       1.0  0.8714366504635364  0.5911915579114615  0.4260830593960143  1.0000
  Zn  Zn2       1.0  0.04617571018654676  0.5959947306042989  0.4279185295631951  1.0000
  C   C30       1.0  0.9599554746484733  0.5897153335090235  0.6902616279717848  1.0000
  C   C31       1.0  0.9576588045229955  0.5974728283788511  0.16374013055931513  1.0000
  C   C32       1.0  0.9601905388635039  0.8569879928923766  0.42242067936034267  1.0000
  C   C33       1.0  0.9574236717480481  0.3301984349659848  0.4315811477421887  1.0000
  O   O1        1.0  0.0242206408292005  0.6015991324721055  0.2181533415066195  1.0000
  O   O2        1.0  0.0260165338032996  0.5892334352879647  0.6372410766357126  1.0000
  O   O3        1.0  0.026205463911258553  0.8050594739262867  0.4209576128494823  1.0000
  O   O4        1.0  0.024031650666270554  0.3857731017460726  0.43443669662653633  1.0000
  O   O5        1.0  0.8935806503539212  0.8014131851321176  0.4195648916987418  1.0000
  O   O6        1.0  0.8933917291759885  0.5855888788857377  0.6358482862796093  1.0000
  O   O7        1.0  0.8915958282312222  0.5979545135123729  0.2167588177790245  1.0000
  O   O8        1.0  0.8914068384933723  0.3821284732364799  0.4330422809313239  1.0000
