data_image0
_chemical_formula_structural       NC7NC5NC3OH9C7ClCClC6H10C8NC6H15Zn2C4O8
_chemical_formula_sum              "N4 C47 O9 H34 Cl2 Zn2"
_cell_length_a       18.75665189421684
_cell_length_b       17.25489619101054
_cell_length_c       14.927698822507613
_cell_angle_alpha    84.77033606779491
_cell_angle_beta     90.00816814075719
_cell_angle_gamma    90.39637954778651

_space_group_name_H-M_alt    "P 1"
_space_group_IT_number       1

loop_
  _space_group_symop_operation_xyz
  'x, y, z'

loop_
  _atom_site_type_symbol
  _atom_site_label
  _atom_site_symmetry_multiplicity
  _atom_site_fract_x
  _atom_site_fract_y
  _atom_site_fract_z
  _atom_site_occupancy
  N   N1        1.0  0.6766750820666566  0.8497475484728905  0.9984864262639456  1.0000
  C   C1        1.0  0.6233863094193702  0.8357341898597702  0.03575096122772259  1.0000
  C   C2        1.0  0.5571014462714524  0.8183038822867112  0.08210252483637148  1.0000
  C   C3        1.0  0.4996816950132917  0.7873645982308304  0.03684423620046509  1.0000
  C   C4        1.0  0.43527667667486486  0.7704739047417387  0.081797678773395  1.0000
  C   C5        1.0  0.4275086194263335  0.7842423830844282  0.17271894773413998  1.0000
  C   C6        1.0  0.4854904929382479  0.8154717001880115  0.217596189892599  1.0000
  C   C7        1.0  0.5498596599442545  0.8323496237154763  0.1725219367008216  1.0000
  N   N2        1.0  0.3608193036247724  0.767113612290046  0.21882970270537339  1.0000
  C   C8        1.0  0.2942085320726712  0.7845631518295753  0.17325985593613635  1.0000
  C   C9        1.0  0.2838953369460387  0.8576044859593495  0.12542958865099596  1.0000
  C   C10       1.0  0.21973416647244032  0.874476047335262  0.08036567351025525  1.0000
  C   C11       1.0  0.1652713064545938  0.8184451661926491  0.08238272843997807  1.0000
  C   C12       1.0  0.0992407939951753  0.8358124408651081  0.03590631843749861  1.0000
  N   N3        1.0  0.0461557313531723  0.8497749751305037  0.9985408624726899  1.0000
  C   C13       1.0  0.1752715223952599  0.7454056343404674  0.12952924850332395  1.0000
  C   C14       1.0  0.2394177852573455  0.7284783424126493  0.17462994226681947  1.0000
  C   C15       1.0  0.3614081551934275  0.7323407746675008  0.3102284971339855  1.0000
  O   O1        1.0  0.3054045992132273  0.7283073778279313  0.3570827854952715  1.0000
  H   H1        1.0  0.5047041755095848  0.7762207220031722  0.9668686575133356  1.0000
  H   H2        1.0  0.3915717388821146  0.7461032301524809  0.045899802928976025  1.0000
  H   H3        1.0  0.48063403900160256  0.8277042730128017  0.28716707115823803  1.0000
  H   H4        1.0  0.5938799758602474  0.8565537439726395  0.20810860253683788  1.0000
  H   H5        1.0  0.3254996023199211  0.9015394236900692  0.12353095710978794  1.0000
  H   H6        1.0  0.2126125013798847  0.9311504028072733  0.044001646053361765  1.0000
  H   H7        1.0  0.1336125580117357  0.7014867798799087  0.13117915083906767  1.0000
  H   H8        1.0  0.2467209014341572  0.6713883940643983  0.20976626106079133  1.0000
  H   H9        1.0  0.4104959394195272  0.7098536884248863  0.34022221725823876  1.0000
  C   C16       1.0  0.8599788094599589  0.6218523083072088  0.002062261837909693  1.0000
  C   C17       1.0  0.8924083267115445  0.5788797996916635  0.07545632783780079  1.0000
  C   C18       1.0  0.8889044510084759  0.4975882430955146  0.0840224899276204  1.0000
  C   C19       1.0  0.8535960762622318  0.4578348216992769  0.019048234632004682  1.0000
  C   C20       1.0  0.8203093134463894  0.5005396725025606  0.946380514666262  1.0000
  C   C21       1.0  0.8237552171316875  0.5818277793685008  0.9377202376520517  1.0000
  C   C22       1.0  0.84893999118909  0.37198745531498245  0.029985880975220272  1.0000
  Cl  Cl1       1.0  0.8067955254328655  0.3301091656722422  0.12868063856495016  1.0000
  C   C23       1.0  0.8739349008441003  0.3275275025956208  0.9671260850222292  1.0000
  Cl  Cl2       1.0  0.9160794195860841  0.36940573988322023  0.868431259863466  1.0000
  C   C24       1.0  0.8692779102351125  0.241680260980929  0.9780629242541498  1.0000
  C   C25       1.0  0.9025647774287822  0.19897504265827684  0.0507280849087626  1.0000
  C   C26       1.0  0.8991125503030076  0.1176901925770082  0.05937283203729449  1.0000
  C   C27       1.0  0.8628588276755255  0.07766420435025095  0.9949728491551013  1.0000
  C   C28       1.0  0.8304567414542777  0.12063286802003503  0.9216392027888038  1.0000
  C   C29       1.0  0.8339676719408095  0.20192722390104959  0.9130875265416437  1.0000
  H   H10       1.0  0.8333049955195816  0.8088633474147182  0.9127492393911456  1.0000
  H   H11       1.0  0.9204314151216346  0.6080359572825885  0.12635498757385788  1.0000
  H   H12       1.0  0.914185041323637  0.465594394628886  0.14110705445050797  1.0000
  H   H13       1.0  0.7912924269179143  0.470896040461272  0.8966899254121932  1.0000
  H   H14       1.0  0.7978061672815059  0.6132559381270686  0.8808076639189765  1.0000
  H   H15       1.0  0.9315831213077427  0.2286130720478237  0.10042194198173132  1.0000
  H   H16       1.0  0.9250557919594552  0.08622870698179512  0.11627842803664146  1.0000
  H   H17       1.0  0.8024296018511408  0.09151055018842728  0.8707273317520434  1.0000
  H   H18       1.0  0.8086879162441367  0.23392661468163461  0.8560060204645387  1.0000
  H   H19       1.0  0.8201837458337371  0.8936230752374036  0.9449960198923144  1.0000
  C   C30       1.0  0.8614148968878266  0.8498451547415928  0.7353780219365077  1.0000
  C   C31       1.0  0.8914937000738713  0.7922934030258985  0.6866945171843251  1.0000
  C   C32       1.0  0.8554005614306325  0.7655580457515658  0.6134752174767366  1.0000
  C   C33       1.0  0.7882272605382811  0.7956152629459543  0.58747110198182  1.0000
  C   C34       1.0  0.7583893187840726  0.8534937265385016  0.6360112529270916  1.0000
  C   C35       1.0  0.79448716451385  0.880223090311239  0.7092329441699963  1.0000
  C   C36       1.0  0.7487636959316706  0.7680403825763178  0.5073339533018059  1.0000
  C   C37       1.0  0.7331147891707279  0.6797301494952984  0.5201164446966706  1.0000
  N   N4        1.0  0.69391959172944  0.6546743662090999  0.44311671738224245  1.0000
  C   C38       1.0  0.7878151009708809  0.7944239593404707  0.4204075731324073  1.0000
  C   C39       1.0  0.7697985536014  0.8659823368292928  0.3736015035681761  1.0000
  C   C40       1.0  0.8058955622836638  0.893156380572619  0.294941420204355  1.0000
  C   C41       1.0  0.8614227074363499  0.8496713659989266  0.261657133532741  1.0000
  C   C42       1.0  0.8802392903382985  0.7786637102133817  0.30889099501269784  1.0000
  C   C43       1.0  0.8441504051022278  0.7514760260439955  0.38758351210282643  1.0000
  H   H20       1.0  0.9929347382297453  0.866428519132269  0.8910716506318195  1.0000
  H   H21       1.0  0.9430566513226707  0.767871815563364  0.7050292035122432  1.0000
  H   H22       1.0  0.8801931283943782  0.7214120843194106  0.5772600115443451  1.0000
  H   H23       1.0  0.7070319642813174  0.8782453812287578  0.6172254655260672  1.0000
  H   H24       1.0  0.7699710964189287  0.9247922347594284  0.745270865995131  1.0000
  H   H25       1.0  0.6952404955197361  0.7957535768290388  0.5037136112162098  1.0000
  H   H26       1.0  0.7830900817213446  0.6458244993398713  0.5290971112024593  1.0000
  H   H27       1.0  0.7008565471814534  0.6664425009514304  0.5823186205458502  1.0000
  H   H28       1.0  0.6873759377300224  0.5942760548593428  0.45317660345357025  1.0000
  H   H29       1.0  0.6427774656913008  0.678451153126085  0.44337985567625104  1.0000
  H   H30       1.0  0.7276572213704571  0.9010855648381307  0.3981572009002854  1.0000
  H   H31       1.0  0.7904197767366308  0.9483829267572779  0.2603821706750633  1.0000
  H   H32       1.0  0.9230869155395277  0.7440432053591749  0.2852500817911716  1.0000
  H   H33       1.0  0.8606471061105115  0.6968663710703811  0.42230579989204853  1.0000
  H   H34       1.0  0.9815452325051357  0.8537364476361258  0.08915412861278549  1.0000
  Zn  Zn1       1.0  0.7832992132605644  0.8497533774842945  0.998507342996826  1.0000
  Zn  Zn2       1.0  0.9395315817345575  0.8497627713861998  0.9985273866769304  1.0000
  C   C44       1.0  0.8614001197480362  0.8466123877778039  0.1622271851217969  1.0000
  C   C45       1.0  0.8614323874883082  0.8529047404176334  0.8348076174904071  1.0000
  C   C46       1.0  0.8623107091706921  0.9915072402378693  0.9927421189290575  1.0000
  C   C47       1.0  0.8605217388635865  0.7080089554900131  0.004292745952720888  1.0000
  O   O2        1.0  0.9207276057242307  0.8539317443672453  0.8681847571928237  1.0000
  O   O3        1.0  0.9206816505097437  0.8455919281780107  0.128865009266246  1.0000
  O   O4        1.0  0.9214161637493138  0.9625963536292872  0.992004606526849  1.0000
  O   O5        1.0  0.9199930392072161  0.7369273244868566  0.00504509265178788  1.0000
  O   O6        1.0  0.8028377024734712  0.9625888243812781  0.9919896370104022  1.0000
  O   O7        1.0  0.8021031951215322  0.8455853313951972  0.12884997746865837  1.0000
  O   O8        1.0  0.8021491501965244  0.8539251208948885  0.868168648469903  1.0000
  O   O9        1.0  0.8014145836425198  0.7369206954412526  0.005029051197734115  1.0000
