data_image0
_chemical_formula_structural       NC5NC3F3CH3C9H10C7ONH5Zn2C4O8
_chemical_formula_sum              "N3 C29 F3 H18 O9 Zn2"
_cell_length_a       13.85151926108384
_cell_length_b       10.297183801781406
_cell_length_c       9.273042158839658
_cell_angle_alpha    86.13565984305119
_cell_angle_beta     90.09323963097282
_cell_angle_gamma    89.99762972311773

_space_group_name_H-M_alt    "P 1"
_space_group_IT_number       1

loop_
  _space_group_symop_operation_xyz
  'x, y, z'

loop_
  _atom_site_type_symbol
  _atom_site_label
  _atom_site_symmetry_multiplicity
  _atom_site_fract_x
  _atom_site_fract_y
  _atom_site_fract_z
  _atom_site_occupancy
  N   N1        1.0  0.9073059198152544  0.4065964060435094  0.40940692614282626  1.0000
  C   C1        1.0  0.8350446867950567  0.3990098922493879  0.4718682334045621  1.0000
  C   C2        1.0  0.7451460337301993  0.389571232218802  0.5495790351498786  1.0000
  C   C3        1.0  0.6575374692180999  0.39716136509381905  0.47406155514500053  1.0000
  C   C4        1.0  0.5700940442048522  0.38957122018735646  0.5495790151004181  1.0000
  C   C5        1.0  0.4800254347777593  0.3990099076886813  0.47186832745041035  1.0000
  N   N2        1.0  0.40762773431789734  0.4065963729144617  0.40940703159703773  1.0000
  C   C6        1.0  0.5702501409379115  0.3734936675859946  0.7007904296477585  1.0000
  C   C7        1.0  0.6578692441304828  0.36304221876212783  0.7775712823374386  1.0000
  C   C8        1.0  0.6580472482962374  0.3505568265765142  0.9405747884158248  1.0000
  F   F1        1.0  0.7390399612647188  0.2836552443172218  0.9922029165050243  1.0000
  F   F2        1.0  0.5771711467129975  0.2836552176957938  0.9922030158006956  1.0000
  F   F3        1.0  0.65809972670154  0.47338487850173294  0.9922244943933988  1.0000
  C   C9        1.0  0.745320467802884  0.37349358197047805  0.7007904493051276  1.0000
  H   H1        1.0  0.6574095247373372  0.4097534803850287  0.3569882418496253  1.0000
  H   H2        1.0  0.5021898232423002  0.36937622110065793  0.7584361552444973  1.0000
  H   H3        1.0  0.813506576719106  0.36937614783990685  0.758436114246642  1.0000
  C   C10       1.0  0.15747504289584757  0.025122779615843305  0.40961118319456463  1.0000
  C   C11       1.0  0.1544952626776548  0.0335440950949799  0.2579380221114352  1.0000
  C   C12       1.0  0.15296841082916474  0.9212420938879297  0.18023142629595923  1.0000
  C   C13       1.0  0.15448331172839178  0.7983674262004491  0.2573501593978987  1.0000
  C   C14       1.0  0.15746786784543976  0.7880601498378369  0.4092151648658773  1.0000
  C   C15       1.0  0.15894333439920225  0.9019045517246493  0.4843543367170111  1.0000
  C   C16       1.0  0.14974530100711436  0.9397825360292617  0.016186192713476544  1.0000
  C   C17       1.0  0.09312843996496745  0.8403045585176069  0.9359501987640977  1.0000
  C   C18       1.0  0.20310923629548458  0.8405693384936779  0.9313714202705948  1.0000
  H   H4        1.0  0.15863241470925818  0.34941623063514515  0.468055717103046  1.0000
  H   H5        1.0  0.15334510584378075  0.12821755282923908  0.19938381388630178  1.0000
  H   H6        1.0  0.15336275239344535  0.7102277392373229  0.20042199020554863  1.0000
  H   H7        1.0  0.16124181353018682  0.8946798871254149  0.6013733655202786  1.0000
  H   H8        1.0  0.16309202964647912  0.5613761571489758  0.6960453984699633  1.0000
  H   H9        1.0  0.14871022317463445  0.039997967981559614  0.9634591708165112  1.0000
  H   H10       1.0  0.06098488940686322  0.7572892286239625  0.0015440702664399936  1.0000
  H   H11       1.0  0.058958036776800116  0.8802102386921093  0.8339724604093643  1.0000
  H   H12       1.0  0.2377731143381262  0.757715655067587  0.9941846821551135  1.0000
  H   H13       1.0  0.23321776707028619  0.880627390969676  0.8267162575055886  1.0000
  C   C19       1.0  0.15700984075439206  0.4025766844677059  0.9861503675084077  1.0000
  C   C20       1.0  0.068338937482052  0.4108488330489388  0.05882687275803278  1.0000
  C   C21       1.0  0.9814112787108986  0.4316861929695137  0.9825598873400949  1.0000
  C   C22       1.0  0.9836897650974408  0.4426823467180152  0.8310554797931947  1.0000
  C   C23       1.0  0.07078023793356537  0.43250294107367365  0.7573705336705429  1.0000
  C   C24       1.0  0.1579330824070444  0.4106062075169923  0.832676038697053  1.0000
  C   C25       1.0  0.8891579998939394  0.44065403463647906  0.0624152441086645  1.0000
  O   O1        1.0  0.8827088132822785  0.3903837637153249  0.1898119573149284  1.0000
  N   N3        1.0  0.8070385416962166  0.5065577539758821  0.998844567558081  1.0000
  H   H14       1.0  0.39123746224077927  0.452196180080187  0.08608469208995029  1.0000
  H   H15       1.0  0.9180389459109455  0.4555263658345922  0.7684256740595559  1.0000
  H   H16       1.0  0.31581013122069024  0.4380001429932594  0.5497400520231311  1.0000
  H   H17       1.0  0.8116873086569477  0.5626537847920488  0.901149623951005  1.0000
  H   H18       1.0  0.7417868527022461  0.5064115397969113  0.05508709846979821  1.0000
  Zn  Zn1       1.0  0.051687997205649434  0.40659300732940395  0.4094152662046007  1.0000
  Zn  Zn2       1.0  0.26324565238840947  0.4065892873982997  0.40941044911546043  1.0000
  C   C26       1.0  0.1577564398743394  0.40391338328574483  0.672667223130794  1.0000
  C   C27       1.0  0.15717952006156932  0.4092705518129207  0.1461586327547535  1.0000
  C   C28       1.0  0.15745797725212565  0.6437942631631395  0.40354637324537035  1.0000
  C   C29       1.0  0.1574779105924607  0.16938811193449888  0.41527956029647983  1.0000
  O   O2        1.0  0.23752149364039205  0.41150999585095643  0.1998570431462645  1.0000
  O   O3        1.0  0.23798183102504356  0.40167013197886153  0.6189647422751894  1.0000
  O   O4        1.0  0.23773973803694753  0.5953769904225088  0.4016477512416212  1.0000
  O   O5        1.0  0.23776351432024154  0.2178031456762621  0.4171739261052425  1.0000
  O   O6        1.0  0.0771700630795642  0.5953791490540532  0.40165178920888006  1.0000
  O   O7        1.0  0.07741215596472943  0.40167385061404465  0.618968702580207  1.0000
  O   O8        1.0  0.07695181675480511  0.41151365278043484  0.19985927055204988  1.0000
  O   O9        1.0  0.0771938375486472  0.21780679433939953  0.4171762615796799  1.0000
