data_image0
_chemical_formula_structural       NC5NC3OH4C6NCH9C6NCOH5Zn2C4O8
_chemical_formula_sum              "N4 C26 O10 H18 Zn2"
_cell_length_a       13.84702359539666
_cell_length_b       9.273386996610926
_cell_length_c       9.27373355559583
_cell_angle_alpha    86.07967468279998
_cell_angle_beta     89.99675348252173
_cell_angle_gamma    89.39943260271846

_space_group_name_H-M_alt    "P 1"
_space_group_IT_number       1

loop_
  _space_group_symop_operation_xyz
  'x, y, z'

loop_
  _atom_site_type_symbol
  _atom_site_label
  _atom_site_symmetry_multiplicity
  _atom_site_fract_x
  _atom_site_fract_y
  _atom_site_fract_z
  _atom_site_occupancy
  N   N1        1.0  0.898192495355015  0.5618160234463914  0.4073536025970397  1.0000
  C   C1        1.0  0.826112696253085  0.5538204988105726  0.47041622484324613  1.0000
  C   C2        1.0  0.7363463143002318  0.5438643815507136  0.5489424770358864  1.0000
  C   C3        1.0  0.6486848353989594  0.5534826153415771  0.47308048072098  1.0000
  C   C4        1.0  0.5608998707243257  0.5439761294476586  0.5480606680731825  1.0000
  C   C5        1.0  0.4709692008717368  0.5538788566702122  0.4699556301445246  1.0000
  N   N2        1.0  0.398676577856276  0.5618398915422556  0.40716540635281584  1.0000
  C   C6        1.0  0.5607712632457429  0.5248227110249533  0.6991282373084489  1.0000
  C   C7        1.0  0.6480525854832627  0.5151954827694623  0.7750582681436506  1.0000
  C   C8        1.0  0.7361534720168396  0.5246407195045573  0.7005627821059792  1.0000
  O   O1        1.0  0.8231552948187949  0.5149970753483712  0.7766242212064143  1.0000
  H   H1        1.0  0.6487890488096549  0.5683211539159281  0.35604632676707537  1.0000
  H   H2        1.0  0.4932767011341268  0.5173405968453371  0.7581410953556306  1.0000
  H   H3        1.0  0.6471697816755477  0.5003863836007433  0.8918610023943765  1.0000
  H   H4        1.0  0.8247988177305016  0.5011371270360607  0.8859398736713322  1.0000
  C   C9        1.0  0.15140889036049954  0.1381817126769174  0.4079665740574895  1.0000
  C   C10       1.0  0.16835848572546763  0.22025861511591538  0.27764987073018754  1.0000
  C   C11       1.0  0.17621523324436295  0.15435650898971565  0.1473285320294666  1.0000
  C   C12       1.0  0.16724116106593193  0.004019545807231625  0.14399191364570685  1.0000
  C   C13       1.0  0.15199340418907958  0.9209749485475409  0.2738553080209558  1.0000
  C   C14       1.0  0.1454694640045322  0.9854632083817477  0.4065649028859712  1.0000
  N   N3        1.0  0.1742813773122449  0.9330520801511596  0.010980330109455531  1.0000
  C   C15       1.0  0.19036141678573687  0.00943890311713557  0.8703345446323798  1.0000
  H   H5        1.0  0.17115196131739618  0.4028685396228149  0.6445715172734328  1.0000
  H   H6        1.0  0.17328406092304838  0.3368857536894495  0.2758798651755625  1.0000
  H   H7        1.0  0.18838855364630058  0.22190783029563077  0.04942837400388367  1.0000
  H   H8        1.0  0.14743499771135607  0.8045492440215494  0.2715834526694285  1.0000
  H   H9        1.0  0.1810462214281634  0.8578728706928029  0.7575750418068916  1.0000
  H   H10       1.0  0.16745400374495634  0.8207167286345768  0.013971462205851102  1.0000
  H   H11       1.0  0.13049206336456542  0.08774068063090619  0.8453165091391593  1.0000
  H   H12       1.0  0.26026070804541024  0.06699648129922743  0.8705408172888646  1.0000
  H   H13       1.0  0.19279119369108133  0.9310860986575894  0.7850129028182247  1.0000
  C   C16       1.0  0.14841578954979706  0.5572771657818567  0.9840462595627297  1.0000
  C   C17       1.0  0.05971388038000125  0.5489926243395529  0.05804480812730971  1.0000
  C   C18       1.0  0.9718082691647274  0.5523993886764527  0.9831227374261097  1.0000
  C   C19       1.0  0.9725459528954543  0.5687801098091319  0.8317475824286127  1.0000
  C   C20       1.0  0.059810840593884196  0.5749118455914466  0.7565491489359313  1.0000
  C   C21       1.0  0.14846258131174017  0.5663677530883817  0.8304852114527121  1.0000
  N   N4        1.0  0.8827975630883091  0.5473352562238876  0.06317908925883642  1.0000
  C   C22       1.0  0.7962573082248859  0.48089805407538083  0.016539298373518193  1.0000
  O   O2        1.0  0.7962846726703471  0.4045515077525827  0.9093149621698652  1.0000
  H   H14       1.0  0.3752848641619533  0.657461974527956  0.080108381009524  1.0000
  H   H15       1.0  0.9057829260590872  0.5783822269143155  0.7711421670382061  1.0000
  H   H16       1.0  0.3020669839488111  0.6277463681326889  0.5452195017553447  1.0000
  H   H17       1.0  0.8821828121527799  0.5856941746622291  0.1665347582402423  1.0000
  H   H18       1.0  0.7301659629495204  0.4929938034304215  0.0769649517954931  1.0000
  Zn  Zn1       1.0  0.042621416319735594  0.5618191384195219  0.4073076097640643  1.0000
  Zn  Zn2       1.0  0.254247716229165  0.5618250985662765  0.40722318058148493  1.0000
  C   C23       1.0  0.14849187135793063  0.5589022363787708  0.6704996151066471  1.0000
  C   C24       1.0  0.14837955939137815  0.5647438224632237  0.14403131275989867  1.0000
  C   C25       1.0  0.14658686989024083  0.8252473041745132  0.40108674405847544  1.0000
  C   C26       1.0  0.15028450080021893  0.2983970222177297  0.41344426354103825  1.0000
  O   O3        1.0  0.22867852225460328  0.5672456686707664  0.1976917280717871  1.0000
  O   O4        1.0  0.22881238103292637  0.5564038209975342  0.6167747069281793  1.0000
  O   O5        1.0  0.2272729857068381  0.771480847699586  0.39922190536633634  1.0000
  O   O6        1.0  0.2302178452886532  0.3521686511262394  0.4152444215850264  1.0000
  O   O7        1.0  0.06665121504256621  0.7714755858590142  0.39928636878175117  1.0000
  O   O8        1.0  0.0681905982098221  0.5564002916061688  0.6168390906318547  1.0000
  O   O9        1.0  0.06805673975234462  0.567242070397118  0.19775437911339044  1.0000
  O   O10       1.0  0.06959606286075126  0.3521650436945214  0.4153071806964621  1.0000
