data_image0
_chemical_formula_structural       NC5NC3OH4C9H10C6ClH5Zn2C4O8
_chemical_formula_sum              "N2 C27 O9 H19 Cl1 Zn2"
_cell_length_a       13.84702359539666
_cell_length_b       10.297183801781406
_cell_length_c       10.302974078461048
_cell_angle_alpha    85.53397833117516
_cell_angle_beta     89.98558386727187
_cell_angle_gamma    89.99848952151973

_space_group_name_H-M_alt    "P 1"
_space_group_IT_number       1

loop_
  _space_group_symop_operation_xyz
  'x, y, z'

loop_
  _atom_site_type_symbol
  _atom_site_label
  _atom_site_symmetry_multiplicity
  _atom_site_fract_x
  _atom_site_fract_y
  _atom_site_fract_z
  _atom_site_occupancy
  N   N1        1.0  0.9093358000526262  0.42172609648946485  0.5670083536668302  1.0000
  C   C1        1.0  0.8371917883658392  0.4139167378132116  0.6238068436831683  1.0000
  C   C2        1.0  0.7473454481841947  0.404192436837395  0.6945329313722247  1.0000
  C   C3        1.0  0.6597612140402627  0.4135867284323162  0.6262064537753886  1.0000
  C   C4        1.0  0.5718999021186635  0.40430158694622875  0.6937387141413738  1.0000
  C   C5        1.0  0.4820487617010544  0.4139737399015031  0.6233920007043217  1.0000
  N   N2        1.0  0.4098200742326775  0.42174940829331464  0.5668388513272626  1.0000
  C   C6        1.0  0.5716174722806825  0.38559413270587534  0.8298004495567058  1.0000
  C   C7        1.0  0.6588214779050932  0.3761910841837156  0.898188203279256  1.0000
  C   C8        1.0  0.7469982195789119  0.3854163870091447  0.8310924981277032  1.0000
  O   O1        1.0  0.8339225936784321  0.37599728612557903  0.8995986073402987  1.0000
  H   H1        1.0  0.6599845966058269  0.4280797605788882  0.5207975288064186  1.0000
  H   H2        1.0  0.5040628208660267  0.37828623395870187  0.8829514462335661  1.0000
  H   H3        1.0  0.6578197412710503  0.3617267984784284  0.0033886960169233777  1.0000
  H   H4        1.0  0.8354548065744398  0.362460060180551  0.9980557244836784  1.0000
  C   C9        1.0  0.15958592956054424  0.040262189182025857  0.5671075362432709  1.0000
  C   C10       1.0  0.15677065182922711  0.0501220467227932  0.43049300881739105  1.0000
  C   C11       1.0  0.15532807934281845  0.9385570526709328  0.360501391461263  1.0000
  C   C12       1.0  0.15675933833679334  0.8149509533855629  0.4299635112743008  1.0000
  C   C13       1.0  0.15957918422230044  0.8032033154627426  0.5667508357726643  1.0000
  C   C14       1.0  0.16097315569736287  0.9163350608484566  0.6344299321760041  1.0000
  C   C15       1.0  0.15228289048936383  0.9586533796171006  0.21274313358250985  1.0000
  C   C16       1.0  0.09573518070962897  0.8599338347107199  0.14049190173038473  1.0000
  C   C17       1.0  0.20575668280322557  0.8602471707747265  0.13633041091590473  1.0000
  H   H5        1.0  0.16067991626578992  0.36400132423062437  0.6197494924881191  1.0000
  H   H6        1.0  0.15568400209697386  0.14535086106891737  0.37775226392376293  1.0000
  H   H7        1.0  0.15570052176305896  0.727351200779515  0.3786873674554665  1.0000
  H   H8        1.0  0.16314471754817353  0.9080005308177759  0.7398309090562082  1.0000
  H   H9        1.0  0.16489225061058232  0.5737988847620943  0.8251035799034149  1.0000
  H   H10       1.0  0.15130499987172952  0.05936890033855712  0.1652510316922311  1.0000
  H   H11       1.0  0.06350963264781595  0.7762948228554888  0.19958471989519322  1.0000
  H   H12       1.0  0.06166493655880291  0.9008052225643685  0.04864976755796712  1.0000
  H   H13       1.0  0.2403632890867078  0.776799293465882  0.19289602461979483  1.0000
  H   H14       1.0  0.23598916479289134  0.9012993224408268  0.04205487064467838  1.0000
  C   C18       1.0  0.15958255702878232  0.4217327684214855  0.18568670614231486  1.0000
  C   C19       1.0  0.1427852271578114  0.28680878949088284  0.19498914183491722  1.0000
  C   C20       1.0  0.13445089974933944  0.2198631860749536  0.08264796549523613  1.0000
  C   C21       1.0  0.14278527034892652  0.28680886285751866  0.9598812428148823  1.0000
  C   C22       1.0  0.159582554566063  0.4217327013657492  0.9481717252479174  1.0000
  C   C23       1.0  0.16789935736320039  0.48853702121911735  0.06172745614740416  1.0000
  Cl  Cl1       1.0  0.11346704741215174  0.05131108311908594  0.09577246036830789  1.0000
  H   H15       1.0  0.16591037811557507  0.47255630252503456  0.5094855780766396  1.0000
  H   H16       1.0  0.13610454995182764  0.23314637232119528  0.2892141674517892  1.0000
  H   H17       1.0  0.13610461743587088  0.23314635378795098  0.8740132013636885  1.0000
  H   H18       1.0  0.18085391900336917  0.5925944434670667  0.053624813516598646  1.0000
  H   H19       1.0  0.16591019435237378  0.4725562910207801  0.616457947662886  1.0000
  Zn  Zn1       1.0  0.05376474882982985  0.42172934612066504  0.5669669264863897  1.0000
  Zn  Zn2       1.0  0.2653911014890129  0.4217355293684019  0.5668908787447218  1.0000
  C   C24       1.0  0.15958043314250106  0.41655761367899435  0.8040481231598018  1.0000
  C   C25       1.0  0.1595777281150017  0.426908900955365  0.329809807898801  1.0000
  C   C26       1.0  0.15957547486718296  0.6589911990945101  0.5616448269054946  1.0000
  C   C27       1.0  0.15958261419086917  0.1844737547988613  0.5722131741243786  1.0000
  O   O2        1.0  0.23988720547180933  0.4286427375028983  0.37814998035689995  1.0000
  O   O3        1.0  0.23989046076223075  0.41482749007698655  0.7556498589614409  1.0000
  O   O4        1.0  0.23988537426016054  0.6105956762594676  0.5599074819501333  1.0000
  O   O5        1.0  0.23989221976006064  0.23287456061113132  0.5738922600474248  1.0000
  O   O6        1.0  0.07926355834109433  0.61059031487724  0.5599655452028085  1.0000
  O   O7        1.0  0.07926864482492735  0.4148236894350501  0.7557078522619673  1.0000
  O   O8        1.0  0.07926538959917151  0.42863889159241775  0.3782064127954759  1.0000
  O   O9        1.0  0.07927040388355366  0.23287070540924068  0.5739487898259057  1.0000
