data_image0
_chemical_formula_structural       NC8ONC5NC3OH9C7OC6H8C8NC6H14Zn2C4O8
_chemical_formula_sum              "N4 C47 O11 H31 Zn2"
_cell_length_a       21.006696871193384
_cell_length_b       15.44810520344615
_cell_length_c       14.927698822507615
_cell_angle_alpha    85.54479576951046
_cell_angle_beta     89.75515839706168
_cell_angle_gamma    90.64032231372497

_space_group_name_H-M_alt    "P 1"
_space_group_IT_number       1

loop_
  _space_group_symop_operation_xyz
  'x, y, z'

loop_
  _atom_site_type_symbol
  _atom_site_label
  _atom_site_symmetry_multiplicity
  _atom_site_fract_x
  _atom_site_fract_y
  _atom_site_fract_z
  _atom_site_occupancy
  N   N1        1.0  0.5995113716412827  0.9573564841478573  0.007328063463320825  1.0000
  C   C1        1.0  0.5463914500263272  0.9465815499185949  0.9906859722207484  1.0000
  C   C2        1.0  0.4803167203341278  0.9331795903779353  0.969984971827699  1.0000
  C   C3        1.0  0.4598274231598289  0.8541021844904537  0.9396031060786936  1.0000
  C   C4        1.0  0.39563990291507173  0.8410095962833073  0.9195551042974612  1.0000
  C   C5        1.0  0.3512656412004044  0.9071874901708442  0.9289681614078589  1.0000
  C   C6        1.0  0.372121806507716  0.9860549446068664  0.9605571098372072  1.0000
  C   C7        1.0  0.4363157463853116  0.9990303209515747  0.9806043320711928  1.0000
  C   C8        1.0  0.28316031352873944  0.8924708588823429  0.9087315339052462  1.0000
  O   O1        1.0  0.2602470714115294  0.8166277972190974  0.9210714972102938  1.0000
  N   N2        1.0  0.24253310230234754  0.9628306724823276  0.877035360607533  1.0000
  C   C9        1.0  0.1767891873996777  0.9621832533440673  0.9040428191693408  1.0000
  C   C10       1.0  0.1546084173792864  0.024848943498686906  0.9593655686260663  1.0000
  C   C11       1.0  0.0906210892026841  0.02489667973466636  0.9855557317450505  1.0000
  C   C12       1.0  0.0482856696399869  0.9624049970024314  0.9563633486696905  1.0000
  C   C13       1.0  0.9824059778897669  0.9624705018299238  0.9832799584599269  1.0000
  N   N3        1.0  0.9294414951557051  0.9625230723239379  0.004919858945834025  1.0000
  C   C14       1.0  0.0701889572148481  0.8999652332374111  0.9007512371316015  1.0000
  C   C15       1.0  0.13418461582758892  0.8999100806919975  0.8745774942633686  1.0000
  C   C16       1.0  0.26639679495929114  0.03109245706785965  0.8144182409952947  1.0000
  O   O2        1.0  0.23135655019483192  0.0931696114413674  0.7868386397249716  1.0000
  H   H1        1.0  0.4934346366030472  0.8025669307728042  0.9314473516882271  1.0000
  H   H2        1.0  0.3807392756035775  0.7794331242787164  0.8959713714720445  1.0000
  H   H3        1.0  0.33870871443072165  0.03727872887751378  0.970779745546136  1.0000
  H   H4        1.0  0.45156158635517235  0.060244672812728405  0.0047504077234632475  1.0000
  H   H5        1.0  0.187057660381274  0.07330297274850703  0.9822992254035015  1.0000
  H   H6        1.0  0.0741877120082913  0.07356938960724779  0.028477080366128626  1.0000
  H   H7        1.0  0.0378141331150873  0.8515274284847588  0.8775060026334487  1.0000
  H   H8        1.0  0.1505003657037979  0.8518757883589603  0.8309077251989083  1.0000
  H   H9        1.0  0.3147838073307729  0.02949615199843755  0.7894433717831901  1.0000
  C   C17       1.0  0.7644622864199514  0.7056721300606084  0.006100878407780622  1.0000
  C   C18       1.0  0.8052938158742798  0.6341032389493546  0.013362394735162098  1.0000
  C   C19       1.0  0.782075575739796  0.5516407128231785  0.04305980735253301  1.0000
  C   C20       1.0  0.7174118890330382  0.5389001653580657  0.06542421147329139  1.0000
  C   C21       1.0  0.6767694884902167  0.6106508648153018  0.05927883698200423  1.0000
  C   C22       1.0  0.6999563570016702  0.6931318237746473  0.029560472376991567  1.0000
  C   C23       1.0  0.6923938738886131  0.45193144614723535  0.09817857191431223  1.0000
  O   O3        1.0  0.6477425275354123  0.44697296420337534  0.1551971053510538  1.0000
  C   C24       1.0  0.7179805465448904  0.3705823221066578  0.06631241778639063  1.0000
  C   C25       1.0  0.7402220954792175  0.3674923813682431  0.9777011183509332  1.0000
  C   C26       1.0  0.763474540101682  0.29019045923622244  0.9480570748296209  1.0000
  C   C27       1.0  0.7644966752149506  0.21420086231867502  0.0061547150252928605  1.0000
  C   C28       1.0  0.7414992068626466  0.2170241405952944  0.09443454440352977  1.0000
  C   C29       1.0  0.7182351008347807  0.29434668274408754  0.12403229198642056  1.0000
  H   H10       1.0  0.8553233403366276  0.6417704550916635  0.996478399616737  1.0000
  H   H11       1.0  0.8149149709692325  0.4980161578422769  0.04947889343967948  1.0000
  H   H12       1.0  0.6268295339079628  0.602773733777795  0.07674760099840328  1.0000
  H   H13       1.0  0.667333026310256  0.7470595710770785  0.024999298004220745  1.0000
  H   H14       1.0  0.7389922172773836  0.42462716288323393  0.9309171757189321  1.0000
  H   H15       1.0  0.7803873280490693  0.28995700055371654  0.8794575029421595  1.0000
  H   H16       1.0  0.7414417656604789  0.1594672313944706  0.14072857924662435  1.0000
  H   H17       1.0  0.7009193315658568  0.2947552474978037  0.19244740501583746  1.0000
  C   C30       1.0  0.764475498471034  0.9600333727216335  0.7429896526318872  1.0000
  C   C31       1.0  0.7916549390500749  0.8962486563628718  0.6932012870499533  1.0000
  C   C32       1.0  0.7595741520473474  0.8659218580415383  0.6198024882185473  1.0000
  C   C33       1.0  0.6994239801603567  0.898518943511989  0.594718480434564  1.0000
  C   C34       1.0  0.6724577997455689  0.9626714769655481  0.6443670203615945  1.0000
  C   C35       1.0  0.704542823336744  0.9929916545662275  0.7177680851697663  1.0000
  C   C36       1.0  0.6643382217573273  0.8672087498985236  0.5144111091424323  1.0000
  C   C37       1.0  0.6508560148118766  0.7684752442828755  0.5259102502588426  1.0000
  N   N4        1.0  0.6159958738057386  0.7399790025493747  0.4487780953779028  1.0000
  C   C38       1.0  0.6990625710273303  0.897184235321141  0.42763897952092056  1.0000
  C   C39       1.0  0.6825762338494054  0.976761953329737  0.3820774540336569  1.0000
  C   C40       1.0  0.714658034624199  0.007578189565248458  0.30360373733677104  1.0000
  C   C41       1.0  0.7644834403710246  0.9598396083188799  0.2692659813140976  1.0000
  C   C42       1.0  0.7816811090375704  0.8808873782394435  0.31525861921889176  1.0000
  C   C43       1.0  0.7496066380803443  0.8500560381168134  0.3937645011482007  1.0000
  H   H18       1.0  0.8378343719168772  0.8697214991595779  0.710808485731474  1.0000
  H   H19       1.0  0.7819585870690373  0.8170187159314484  0.5827283145356861  1.0000
  H   H20       1.0  0.6264601185247508  0.9895697041802981  0.6263125365703412  1.0000
  H   H21       1.0  0.6824029341510902  0.042370729167134226  0.7546697812343045  1.0000
  H   H22       1.0  0.6163900479508869  0.8973806660645851  0.5115830453909209  1.0000
  H   H23       1.0  0.695670531353463  0.7313459108851645  0.5340249842726184  1.0000
  H   H24       1.0  0.622124766349802  0.7532035726569929  0.5881186740896376  1.0000
  H   H25       1.0  0.6104888886892287  0.6725096826841094  0.4579325290445448  1.0000
  H   H26       1.0  0.5701958090304055  0.7657926913276768  0.4497557838146247  1.0000
  H   H27       1.0  0.6447504388154658  0.015336162065858968  0.4074656781921686  1.0000
  H   H28       1.0  0.7005314012136153  0.06897197486206896  0.2700154624703557  1.0000
  H   H29       1.0  0.8201349060264637  0.8428614974183074  0.2907880560917371  1.0000
  H   H30       1.0  0.7646414708682999  0.7893646276369751  0.4275187020743998  1.0000
  H   H31       1.0  0.8717250347458401  0.9660442593271624  0.09602607466137794  1.0000
  Zn  Zn1       1.0  0.6947220800472003  0.9588451308029784  0.006638278022617517  1.0000
  Zn  Zn2       1.0  0.8342307804283757  0.9610273407375789  0.005616969677829319  1.0000
  C   C44       1.0  0.7644802987433547  0.9564267993875345  0.1697881159312118  1.0000
  C   C45       1.0  0.7644740852380897  0.9634467884567982  0.8424672086820006  1.0000
  C   C46       1.0  0.7644868396234121  0.1180793631287767  0.00257379867282248  1.0000
  C   C47       1.0  0.764467496683849  0.8017931836626407  0.00968157395220682  1.0000
  O   O4        1.0  0.817416435427749  0.9654167217729415  0.8754652036367874  1.0000
  O   O5        1.0  0.8174218240833481  0.9561124598096228  0.13601471355752226  1.0000
  O   O6        1.0  0.8174263922462051  0.0866489378996389  0.0009879746225442965  1.0000
  O   O7        1.0  0.8174118196594257  0.8348802491570322  0.010491875734036876  1.0000
  O   O8        1.0  0.7115409932086778  0.08499222163978803  0.0017633723102190584  1.0000
  O   O9        1.0  0.7115364251125315  0.95445678385895  0.13679006357718915  1.0000
  O   O10       1.0  0.7115310364809405  0.9637610160463578  0.8762394763126629  1.0000
  O   O11       1.0  0.7115264207106109  0.8332245372126044  0.011266215591449913  1.0000
