data_image0
_chemical_formula_structural       NC5OC5NC4H8C6ClH5C6NCOH5Zn2C4O8
_chemical_formula_sum              "N3 C31 O10 H18 Cl1 Zn2"
_cell_length_a       19.189071930511275
_cell_length_b       10.30297070629231
_cell_length_c       9.27373355559583
_cell_angle_alpha    86.17407986501598
_cell_angle_beta     89.98918376362916
_cell_angle_gamma    89.98947815314023

_space_group_name_H-M_alt    "P 1"
_space_group_IT_number       1

loop_
  _space_group_symop_operation_xyz
  'x, y, z'

loop_
  _atom_site_type_symbol
  _atom_site_label
  _atom_site_symmetry_multiplicity
  _atom_site_fract_x
  _atom_site_fract_y
  _atom_site_fract_z
  _atom_site_occupancy
  N   N1        1.0  0.6560449999724225  0.4053111829256048  0.40977271053354924  1.0000
  C   C1        1.0  0.6015854446916338  0.4512184366187053  0.3894740123202458  1.0000
  C   C2        1.0  0.5338447806930886  0.5083194070623256  0.3642254821017268  1.0000
  C   C3        1.0  0.5241369585888328  0.6041247609721019  0.2516773211052934  1.0000
  C   C4        1.0  0.4583342319939149  0.6596654176646153  0.22729100176393224  1.0000
  C   C5        1.0  0.4015804137151213  0.6192826810766265  0.3139487969019079  1.0000
  O   O1        1.0  0.3366064145961691  0.6784294787668157  0.2870490105981576  1.0000
  C   C6        1.0  0.2716393215343284  0.619087137148399  0.31332265493903444  1.0000
  C   C7        1.0  0.21487870875619353  0.6969761079831993  0.34690480390314044  1.0000
  C   C8        1.0  0.14908242053006374  0.6417299561289966  0.3722351665762516  1.0000
  C   C9        1.0  0.13938779992715003  0.5078609127691001  0.3627559967227596  1.0000
  C   C10       1.0  0.07165363018603603  0.4509658176405869  0.3886642630893914  1.0000
  N   N2        1.0  0.017199348059078905  0.4052241423690228  0.40949384351381335  1.0000
  C   C11       1.0  0.1956749797254823  0.4296431987826606  0.3270459855929686  1.0000
  C   C12       1.0  0.261462411882556  0.4849292469082589  0.30176404861677253  1.0000
  C   C13       1.0  0.4117705557301745  0.5243970330836158  0.4282929984929411  1.0000
  C   C14       1.0  0.4775643756178893  0.4688529314990122  0.4527474332599311  1.0000
  H   H1        1.0  0.5673785464763713  0.6359629356119709  0.18299274665220566  1.0000
  H   H2        1.0  0.451289874413196  0.7338381480309704  0.14020889009875415  1.0000
  H   H3        1.0  0.2219128097629133  0.8005887724510251  0.3542039470430307  1.0000
  H   H4        1.0  0.10583534270942418  0.7033367191557779  0.39898554177807977  1.0000
  H   H5        1.0  0.1886341938979194  0.3261667506795005  0.3179991208596571  1.0000
  H   H6        1.0  0.304000027277015  0.4234945077839003  0.2712252259329227  1.0000
  H   H7        1.0  0.3692381418804225  0.4947618256905373  0.4997001178735754  1.0000
  H   H8        1.0  0.48461537779063435  0.3957394135908854  0.5410408494357549  1.0000
  C   C15       1.0  0.836625508406536  0.024020290719045878  0.4096394824699652  1.0000
  C   C16       1.0  0.9085870505459838  0.021128225069067186  0.43734364414341315  1.0000
  C   C17       1.0  0.9442924470622255  0.9027364144002242  0.45108960898659034  1.0000
  C   C18       1.0  0.9085870499832502  0.7860202557441002  0.43734357636269494  1.0000
  C   C19       1.0  0.8366255158514138  0.7865052333274358  0.4096395649666551  1.0000
  C   C20       1.0  0.8009955248035165  0.9060988378720495  0.39592249776738897  1.0000
  Cl  Cl1       1.0  0.03418955845512617  0.900627051332458  0.48569860822060495  1.0000
  H   H9        1.0  0.8095188557678539  0.3524127917215101  0.39920300310020407  1.0000
  H   H10       1.0  0.9372079047142325  0.11050324358750017  0.44836213879834924  1.0000
  H   H11       1.0  0.9372078771456372  0.6953020497651137  0.44836203527271823  1.0000
  H   H12       1.0  0.7454965997021701  0.9074009591105712  0.37455617111941053  1.0000
  H   H13       1.0  0.8095188523950266  0.45938482767641503  0.3992032752092692  1.0000
  C   C21       1.0  0.8365856432376344  0.40117234989298645  0.9864125233947908  1.0000
  C   C22       1.0  0.772535561419965  0.39373617025729996  0.06041344958177608  1.0000
  C   C23       1.0  0.7091192363155494  0.39682103087256726  0.9855129392878813  1.0000
  C   C24       1.0  0.7097344177391915  0.41156217164216796  0.8341647298400874  1.0000
  C   C25       1.0  0.7727366407312749  0.4170613148573705  0.7589606202797592  1.0000
  C   C26       1.0  0.8366653931897609  0.4093531200456977  0.8328664945941138  1.0000
  N   N3        1.0  0.6448626139715342  0.39228302117368097  0.06557704840455393  1.0000
  C   C27       1.0  0.5820782392018766  0.3325137651433423  0.018843110399008548  1.0000
  O   O2        1.0  0.5817117881785295  0.26380815190005924  0.9114925596004477  1.0000
  H   H14       1.0  0.0008033933269031592  0.49128125834093256  0.08259915284308986  1.0000
  H   H15       1.0  0.6616061296221056  0.4202177572278474  0.7735872854196839  1.0000
  H   H16       1.0  0.9478183312775978  0.46455552822920954  0.5476744174619093  1.0000
  H   H17       1.0  0.644613041440357  0.4268030235422653  0.16899624049102813  1.0000
  H   H18       1.0  0.5344472571288228  0.3434132689095346  0.07930073534262627  1.0000
  Zn  Zn1       1.0  0.7602663530301291  0.405282681842267  0.40970055210501344  1.0000
  Zn  Zn2       1.0  0.9129780134902317  0.40524217645891164  0.40957778576076187  1.0000
  C   C28       1.0  0.8366487650097006  0.40263476317400615  0.6728685515814761  1.0000
  C   C29       1.0  0.8365972691306196  0.4078917341496601  0.14640992640059625  1.0000
  C   C30       1.0  0.8366213983152154  0.6423238132018385  0.40389632480336735  1.0000
  C   C31       1.0  0.8366245837224834  0.16820112507267382  0.4153822300586168  1.0000
  O   O3        1.0  0.8945544501674456  0.41012578536985544  0.2000599272556045  1.0000
  O   O4        1.0  0.8945962007156802  0.40036898588492303  0.6191249590333596  1.0000
  O   O5        1.0  0.8945733206670564  0.5939209397549599  0.4019279835150156  1.0000
  O   O6        1.0  0.8945772780957433  0.216573839756506  0.4172567947535828  1.0000
  O   O7        1.0  0.778667036311622  0.5939510185598351  0.40202154314650573  1.0000
  O   O8        1.0  0.778689916349872  0.40040062375411506  0.6192184418192526  1.0000
  O   O9        1.0  0.778648165684723  0.4101573612505929  0.20015167726549654  1.0000
  O   O10       1.0  0.7786709936203512  0.21660540739571865  0.41734865281815436  1.0000
