data_image0
_chemical_formula_structural       Eu8H16C56N16O48
_chemical_formula_sum              "Eu8 H16 C56 N16 O48"
_cell_length_a       10.943
_cell_length_b       11.828
_cell_length_c       19.261
_cell_angle_alpha    90.0
_cell_angle_beta     90.0
_cell_angle_gamma    90.0

_space_group_name_H-M_alt    "P 1"
_space_group_IT_number       1

loop_
  _space_group_symop_operation_xyz
  'x, y, z'

loop_
  _atom_site_type_symbol
  _atom_site_label
  _atom_site_symmetry_multiplicity
  _atom_site_fract_x
  _atom_site_fract_y
  _atom_site_fract_z
  _atom_site_occupancy
  Eu  Eu1       1.0  0.86245  0.84249  0.10301  1.0000
  Eu  Eu2       1.0  0.38106000000000007  0.02847  0.31746  1.0000
  Eu  Eu3       1.0  0.13755  0.15751  0.60301  1.0000
  Eu  Eu4       1.0  0.61894  0.97153  0.81746  1.0000
  Eu  Eu5       1.0  0.63755  0.34248999999999996  0.10301  1.0000
  Eu  Eu6       1.0  0.11894  0.52847  0.31746  1.0000
  Eu  Eu7       1.0  0.36245  0.65751  0.60301  1.0000
  Eu  Eu8       1.0  0.8810599999999998  0.47152999999999995  0.81746  1.0000
  H   H1        1.0  0.6456  0.9944999999999999  0.20769999999999997  1.0000
  H   H2        1.0  0.7705000000000001  0.7501  0.3725  1.0000
  H   H3        1.0  0.1296  0.8985  0.21670000000000003  1.0000
  H   H4        1.0  0.9936  0.2589  0.2029  1.0000
  H   H5        1.0  0.3544  0.0055000000000000005  0.7077  1.0000
  H   H6        1.0  0.2295  0.24989999999999998  0.8725  1.0000
  H   H7        1.0  0.8704  0.1015  0.7167  1.0000
  H   H8        1.0  0.0064  0.7411  0.7029  1.0000
  H   H9        1.0  0.8544  0.4945  0.20769999999999997  1.0000
  H   H10       1.0  0.7295  0.2501  0.3725  1.0000
  H   H11       1.0  0.3704  0.3985  0.21670000000000003  1.0000
  H   H12       1.0  0.5064  0.7588999999999999  0.2029  1.0000
  H   H13       1.0  0.1456  0.5055  0.7077  1.0000
  H   H14       1.0  0.2705  0.7499  0.8725  1.0000
  H   H15       1.0  0.6296  0.6015  0.7167  1.0000
  H   H16       1.0  0.4936  0.2411  0.7029  1.0000
  C   C1        1.0  0.6687  0.9416  0.24089999999999998  1.0000
  C   C2        1.0  0.6356  0.8579  0.344  1.0000
  C   C3        1.0  0.7427  0.7969  0.3371  1.0000
  C   C4        1.0  0.8058  0.8078  0.2768  1.0000
  C   C5        1.0  0.9134999999999999  0.7327  0.2588  1.0000
  C   C6        1.0  0.5515  0.8399999999999999  0.4062  1.0000
  C   C7        1.0  0.10170000000000001  0.9726  0.2141  1.0000
  C   C8        1.0  0.1266  0.1562  0.2422  1.0000
  C   C9        1.0  0.0208  0.1846  0.2063  1.0000
  C   C10       1.0  0.9595  0.0973  0.1763  1.0000
  C   C11       1.0  0.8396999999999999  0.11599999999999999  0.1376  1.0000
  C   C12       1.0  0.2038  0.2492  0.2774  1.0000
  C   C13       1.0  0.3228  0.1205  0.4731  1.0000
  C   C14       1.0  0.2011  0.0682  0.44859999999999994  1.0000
  C   C15       1.0  0.3313  0.0584  0.7409  1.0000
  C   C16       1.0  0.3644  0.1421  0.8439999999999999  1.0000
  C   C17       1.0  0.2573  0.2031  0.8371  1.0000
  C   C18       1.0  0.19419999999999998  0.1922  0.7768  1.0000
  C   C19       1.0  0.0865  0.2673  0.7588  1.0000
  C   C20       1.0  0.4485  0.16  0.9062  1.0000
  C   C21       1.0  0.8983  0.0274  0.7141  1.0000
  C   C22       1.0  0.8734000000000001  0.8438  0.7422  1.0000
  C   C23       1.0  0.9792  0.8154  0.7063  1.0000
  C   C24       1.0  0.0405  0.9026999999999998  0.6763  1.0000
  C   C25       1.0  0.1603  0.884  0.6376  1.0000
  C   C26       1.0  0.7962  0.7507999999999999  0.7774  1.0000
  C   C27       1.0  0.6772  0.8795  0.9731000000000001  1.0000
  C   C28       1.0  0.7989000000000002  0.9317999999999999  0.9486  1.0000
  C   C29       1.0  0.8313000000000001  0.4416  0.24089999999999998  1.0000
  C   C30       1.0  0.8644  0.3579  0.344  1.0000
  C   C31       1.0  0.7572999999999999  0.2969  0.3371  1.0000
  C   C32       1.0  0.6942  0.3078  0.2768  1.0000
  C   C33       1.0  0.5865  0.2327  0.2588  1.0000
  C   C34       1.0  0.9485  0.33999999999999997  0.4062  1.0000
  C   C35       1.0  0.39829999999999993  0.47259999999999996  0.2141  1.0000
  C   C36       1.0  0.3734  0.6562  0.2422  1.0000
  C   C37       1.0  0.47919999999999996  0.6845999999999999  0.2063  1.0000
  C   C38       1.0  0.5405  0.5973  0.1763  1.0000
  C   C39       1.0  0.6603  0.616  0.1376  1.0000
  C   C40       1.0  0.2962  0.7492  0.2774  1.0000
  C   C41       1.0  0.1772  0.6205  0.4731  1.0000
  C   C42       1.0  0.2989  0.5682  0.44859999999999994  1.0000
  C   C43       1.0  0.1687  0.5584  0.7409  1.0000
  C   C44       1.0  0.1356  0.6421  0.8439999999999999  1.0000
  C   C45       1.0  0.2427  0.7031  0.8371  1.0000
  C   C46       1.0  0.3058  0.6922  0.7768  1.0000
  C   C47       1.0  0.41350000000000003  0.7672999999999999  0.7588  1.0000
  C   C48       1.0  0.05149999999999999  0.66  0.9062  1.0000
  C   C49       1.0  0.6017  0.5274  0.7141  1.0000
  C   C50       1.0  0.6266  0.34379999999999994  0.7422  1.0000
  C   C51       1.0  0.5208  0.3154  0.7063  1.0000
  C   C52       1.0  0.45949999999999996  0.4027  0.6763  1.0000
  C   C53       1.0  0.3397  0.384  0.6376  1.0000
  C   C54       1.0  0.7038  0.2508  0.7774  1.0000
  C   C55       1.0  0.8228  0.3795  0.9731000000000001  1.0000
  C   C56       1.0  0.7011  0.4318  0.9486  1.0000
  N   N1        1.0  0.7698999999999999  0.8839  0.22830000000000003  1.0000
  N   N2        1.0  0.5974  0.9316  0.2957  1.0000
  N   N3        1.0  0.9989  0.9906999999999999  0.1773  1.0000
  N   N4        1.0  0.1675  0.05109999999999999  0.2473  1.0000
  N   N5        1.0  0.23009999999999997  0.1161  0.7283  1.0000
  N   N6        1.0  0.4026  0.0684  0.7957  1.0000
  N   N7        1.0  0.0011  0.0093  0.6773  1.0000
  N   N8        1.0  0.8325  0.9489  0.7473  1.0000
  N   N9        1.0  0.7301  0.38389999999999996  0.22830000000000003  1.0000
  N   N10       1.0  0.9026000000000001  0.4316  0.2957  1.0000
  N   N11       1.0  0.5011  0.4907  0.1773  1.0000
  N   N12       1.0  0.3325  0.5511  0.2473  1.0000
  N   N13       1.0  0.2699  0.6161  0.7283  1.0000
  N   N14       1.0  0.0974  0.5684  0.7957  1.0000
  N   N15       1.0  0.49889999999999995  0.5093  0.6773  1.0000
  N   N16       1.0  0.6675  0.44889999999999997  0.7473  1.0000
  O   O1        1.0  0.9544  0.7405  0.1984  1.0000
  O   O2        1.0  0.9508000000000001  0.6667  0.305  1.0000
  O   O3        1.0  0.4539  0.8964999999999999  0.407  1.0000
  O   O4        1.0  0.5854  0.7692  0.4494  1.0000
  O   O5        1.0  0.795  0.035300000000000005  0.1043  1.0000
  O   O6        1.0  0.7925  0.2117  0.1458  1.0000
  O   O7        1.0  0.3005  0.21739999999999995  0.3065  1.0000
  O   O8        1.0  0.1665  0.3486000000000001  0.2736  1.0000
  O   O9        1.0  0.4082  0.1241  0.42900000000000005  1.0000
  O   O10       1.0  0.3266  0.1533  0.5347  1.0000
  O   O11       1.0  0.20469999999999997  0.0146  0.3919  1.0000
  O   O12       1.0  0.1098  0.0818  0.48640000000000005  1.0000
  O   O13       1.0  0.0456  0.2595  0.6984  1.0000
  O   O14       1.0  0.0492  0.3333  0.805  1.0000
  O   O15       1.0  0.5461  0.1035  0.907  1.0000
  O   O16       1.0  0.4146  0.2308  0.9494000000000001  1.0000
  O   O17       1.0  0.205  0.9647  0.6043  1.0000
  O   O18       1.0  0.2075  0.7882999999999999  0.6458  1.0000
  O   O19       1.0  0.6995  0.7826  0.8065  1.0000
  O   O20       1.0  0.8335  0.6514  0.7736  1.0000
  O   O21       1.0  0.5918  0.8759  0.929  1.0000
  O   O22       1.0  0.6734  0.8466999999999999  0.0347  1.0000
  O   O23       1.0  0.7952999999999999  0.9854  0.8919000000000001  1.0000
  O   O24       1.0  0.8902  0.9182  0.9864000000000002  1.0000
  O   O25       1.0  0.5456  0.24049999999999994  0.1984  1.0000
  O   O26       1.0  0.5492  0.1667  0.305  1.0000
  O   O27       1.0  0.0461  0.3965  0.407  1.0000
  O   O28       1.0  0.9146000000000001  0.2692  0.4494  1.0000
  O   O29       1.0  0.705  0.5353  0.1043  1.0000
  O   O30       1.0  0.7075  0.7117  0.1458  1.0000
  O   O31       1.0  0.1995  0.7173999999999999  0.3065  1.0000
  O   O32       1.0  0.3335  0.8485999999999999  0.2736  1.0000
  O   O33       1.0  0.0918  0.6241  0.42900000000000005  1.0000
  O   O34       1.0  0.1734  0.6533  0.5347  1.0000
  O   O35       1.0  0.2953  0.5146  0.3919  1.0000
  O   O36       1.0  0.3902  0.5818  0.48640000000000005  1.0000
  O   O37       1.0  0.45439999999999997  0.7594999999999998  0.6984  1.0000
  O   O38       1.0  0.4508  0.8333  0.805  1.0000
  O   O39       1.0  0.9539  0.6035  0.907  1.0000
  O   O40       1.0  0.0854  0.7308  0.9494000000000001  1.0000
  O   O41       1.0  0.295  0.4646999999999999  0.6043  1.0000
  O   O42       1.0  0.2925  0.2883  0.6458  1.0000
  O   O43       1.0  0.8005  0.2826  0.8065  1.0000
  O   O44       1.0  0.6665  0.1514  0.7736  1.0000
  O   O45       1.0  0.9082000000000001  0.3759  0.929  1.0000
  O   O46       1.0  0.8266  0.3467  0.0347  1.0000
  O   O47       1.0  0.7047  0.48539999999999994  0.8919000000000001  1.0000
  O   O48       1.0  0.6098  0.4182  0.9864000000000002  1.0000
