data_image0
_chemical_formula_structural       NC9NC3OCH8C12SCH12C13NH9Zn2C4O8
_chemical_formula_sum              "N3 C43 O9 H29 S1 Zn2"
_cell_length_a       17.728193572023454
_cell_length_b       10.299776766347529
_cell_length_c       10.29852850225146
_cell_angle_alpha    85.54283687761513
_cell_angle_beta     90.70114426090622
_cell_angle_gamma    88.43488659094776

_space_group_name_H-M_alt    "P 1"
_space_group_IT_number       1

loop_
  _space_group_symop_operation_xyz
  'x, y, z'

loop_
  _atom_site_type_symbol
  _atom_site_label
  _atom_site_symmetry_multiplicity
  _atom_site_fract_x
  _atom_site_fract_y
  _atom_site_fract_z
  _atom_site_occupancy
  N   N1        1.0  0.7103817836403571  0.3874042493706829  0.5850482782794126  1.0000
  C   C1        1.0  0.6497731988783175  0.3499719051070116  0.5980538974620506  1.0000
  C   C2        1.0  0.5743238390795921  0.3034384992414925  0.6142405589317323  1.0000
  C   C3        1.0  0.5624393054482103  0.1753977448585711  0.623657592439594  1.0000
  C   C4        1.0  0.4857338517263443  0.12594128616352873  0.6386084786758293  1.0000
  C   C5        1.0  0.42757609965237264  0.2086046876604324  0.6560836139560258  1.0000
  C   C6        1.0  0.34953169385269256  0.16354939000911717  0.6778191144368559  1.0000
  C   C7        1.0  0.2881819298961735  0.24903002110142847  0.6423558420394215  1.0000
  C   C8        1.0  0.2139108755187046  0.20972045854452387  0.6625051375198607  1.0000
  C   C9        1.0  0.151582135210151  0.2977386102810906  0.624967332948045  1.0000
  N   N2        1.0  0.10148323830697438  0.36849667628634114  0.5947904864388729  1.0000
  C   C10       1.0  0.20035810676816454  0.08481004549332673  0.7191719261856511  1.0000
  C   C11       1.0  0.26080913028874664  0.9996464727336835  0.756043957796283  1.0000
  C   C12       1.0  0.33497660112174776  0.03846636558494089  0.7360242458297708  1.0000
  O   O1        1.0  0.44091786536962185  0.34239024435019855  0.6547928807741596  1.0000
  C   C13       1.0  0.5086373158522174  0.39978735209190447  0.6061791058749111  1.0000
  H   H1        1.0  0.6093740742441872  0.10593802295128187  0.6215535915381367  1.0000
  H   H2        1.0  0.47809285431826815  0.022293159522018408  0.6366218464278017  1.0000
  H   H3        1.0  0.29806348605233823  0.3458705747598958  0.5979270130373788  1.0000
  H   H4        1.0  0.14314655268254034  0.05351623013540619  0.7353130339905112  1.0000
  H   H5        1.0  0.2501907907206986  0.9034646214198734  0.800934007538477  1.0000
  H   H6        1.0  0.38051416596557214  0.9712247413460118  0.768446196631908  1.0000
  H   H7        1.0  0.49916660465029616  0.43575297162016036  0.5026406778541592  1.0000
  H   H8        1.0  0.5215085851318731  0.48415312019703927  0.6627719223267754  1.0000
  C   C14       1.0  0.9060072927681089  0.9965817174142557  0.589919652603111  1.0000
  C   C15       1.0  0.9105382604146889  0.9847548553946595  0.7265627719014167  1.0000
  C   C16       1.0  0.9127614802779602  0.8616269800422645  0.7958044774295155  1.0000
  C   C17       1.0  0.9103939589930813  0.7494740500492638  0.7265743695492011  1.0000
  C   C18       1.0  0.9058650068733449  0.7593088673715592  0.5899305509851163  1.0000
  C   C19       1.0  0.903696601155874  0.883300086497034  0.5223680758554983  1.0000
  C   C20       1.0  0.9175464162743703  0.8501798026710475  0.9403572729178813  1.0000
  C   C21       1.0  0.8743538635952681  0.7587825160211451  0.013332923107758028  1.0000
  C   C22       1.0  0.8788797130708017  0.7482427437657214  0.14937125341002877  1.0000
  C   C23       1.0  0.9264099078883096  0.8288301791634706  0.21423613415528353  1.0000
  C   C24       1.0  0.9697825123818677  0.9196445113780763  0.14263819837756198  1.0000
  C   C25       1.0  0.9653673209449124  0.9305288262152621  0.006592208280184145  1.0000
  S   S1        1.0  0.9323004146268278  0.8148416404400974  0.3887941012142302  1.0000
  C   C26       1.0  0.8564666893242652  0.9345630100087767  0.40643616241577163  1.0000
  H   H9        1.0  0.9043104778201817  0.3285403353538223  0.5378531609603097  1.0000
  H   H10       1.0  0.9113081325067702  0.07153085248240632  0.7795466270738203  1.0000
  H   H11       1.0  0.9131315298551351  0.6543101784610261  0.7794110795904194  1.0000
  H   H12       1.0  0.9002016682413272  0.8916554944406229  0.41695373221355103  1.0000
  H   H13       1.0  0.9041015941109444  0.4356044292137187  0.5378670667351813  1.0000
  H   H14       1.0  0.8363660495792452  0.6966708272325748  0.9652668844275057  1.0000
  H   H15       1.0  0.8451381670186298  0.6777928892896752  0.20425893678914417  1.0000
  H   H16       1.0  0.006967104696823378  0.9818503713176914  0.1922733539975433  1.0000
  H   H17       1.0  6.129279303079474e-05  0.0005632091146632374  0.953141461570072  1.0000
  H   H18       1.0  0.8715752836281102  0.03017877857898643  0.35792899755070595  1.0000
  H   H19       1.0  0.8477192069757383  0.9456298012839527  0.5115101590479404  1.0000
  H   H20       1.0  0.8033652152118659  0.9016118652793806  0.3629862856299938  1.0000
  C   C27       1.0  0.9059468412562919  0.3780712517441216  0.20850848438790967  1.0000
  C   C28       1.0  0.8274882860573568  0.4017260158252534  0.20406438763344606  1.0000
  C   C29       1.0  0.7877405148270635  0.41357146750599694  0.08466622926571699  1.0000
  C   C30       1.0  0.8274658080006142  0.40146224597571034  0.9688041190871011  1.0000
  C   C31       1.0  0.9059254350263564  0.37781930959416044  0.9713416658226142  1.0000
  C   C32       1.0  0.9446635505916059  0.36627244722454866  0.09164816951836108  1.0000
  C   C33       1.0  0.704794042356004  0.43857358792286494  0.08097559679289756  1.0000
  C   C34       1.0  0.6714581925332721  0.5281152874424437  0.1610629230428624  1.0000
  C   C35       1.0  0.5933807718590635  0.5516027375110832  0.1574694536624952  1.0000
  C   C36       1.0  0.5476002782857528  0.48595815276684595  0.07397873996619464  1.0000
  C   C37       1.0  0.5801912578916645  0.3966887953461371  0.9939768709752087  1.0000
  C   C38       1.0  0.6582606406546715  0.37310737025935836  0.9973335281162443  1.0000
  C   C39       1.0  0.4672194826694044  0.5101892017309271  0.07039992449077737  1.0000
  N   N3        1.0  0.402598743166646  0.5296694541475104  0.0675228332017146  1.0000
  H   H21       1.0  0.05414037835696938  0.33256770038963307  0.4242918494428889  1.0000
  H   H22       1.0  0.7970098078471076  0.40920723920631447  0.29382091538729616  1.0000
  H   H23       1.0  0.7972705733464921  0.412269129750072  0.8763481779663587  1.0000
  H   H24       1.0  0.005133074798946423  0.3480459760889749  0.09433844178925144  1.0000
  H   H25       1.0  0.054258109645963115  0.3339517964821428  0.7687505874167013  1.0000
  H   H26       1.0  0.7058708239171866  0.5812193176205971  0.22522418866791427  1.0000
  H   H27       1.0  0.5687660580822063  0.6211822903708082  0.21956464599861736  1.0000
  H   H28       1.0  0.5452567634548572  0.34506014005373586  0.9292309046289778  1.0000
  H   H29       1.0  0.6821346114638692  0.3024334525763468  0.9357666428027338  1.0000
  Zn  Zn1       1.0  0.8232452271007717  0.3819444593765298  0.5878671697144024  1.0000
  Zn  Zn2       1.0  0.988619822122141  0.3739458590565419  0.5919822338510554  1.0000
  C   C40       1.0  0.9059287606970735  0.37269336560871197  0.8271497690330273  1.0000
  C   C41       1.0  0.9059380941019612  0.38319850405589934  0.3526998069745588  1.0000
  C   C42       1.0  0.9058881426342419  0.6151391043476178  0.5847525567810086  1.0000
  C   C43       1.0  0.9059786560231822  0.1407512077223176  0.5950970870474344  1.0000
  O   O2        1.0  0.968693956487847  0.38187816389707496  0.4026533773518737  1.0000
  O   O3        1.0  0.9686883896180428  0.3679419736015306  0.7803190632125746  1.0000
  O   O4        1.0  0.968654743962118  0.5637200142510632  0.5845815782858002  1.0000
  O   O5        1.0  0.9687275457136244  0.1861001352992966  0.5983907634877432  1.0000
  O   O6        1.0  0.8431374470750552  0.569790185864721  0.5814586386666136  1.0000
  O   O7        1.0  0.8431710924383572  0.37401370554081026  0.7771960543614302  1.0000
  O   O8        1.0  0.8431766594106208  0.387949851093687  0.3995288069053892  1.0000
  O   O9        1.0  0.8432102486323124  0.1921718131751005  0.595266290421063  1.0000
