data_image0
_chemical_formula_structural       NC5OC5NC4H8C6NCH9C6BrH4Zn2C4O8
_chemical_formula_sum              "N3 C31 O9 H21 Br1 Zn2"
_cell_length_a       19.189071930511275
_cell_length_b       9.273386996610926
_cell_length_c       9.27656775626242
_cell_angle_alpha    86.02760264675325
_cell_angle_beta     90.16432666077901
_cell_angle_gamma    89.38971707573329

_space_group_name_H-M_alt    "P 1"
_space_group_IT_number       1

loop_
  _space_group_symop_operation_xyz
  'x, y, z'

loop_
  _atom_site_type_symbol
  _atom_site_label
  _atom_site_symmetry_multiplicity
  _atom_site_fract_x
  _atom_site_fract_y
  _atom_site_fract_z
  _atom_site_occupancy
  N   N1        1.0  0.6457847222726484  0.5631035646154745  0.40756783788870066  1.0000
  C   C1        1.0  0.5910369071924789  0.6141355347898902  0.3871896294831132  1.0000
  C   C2        1.0  0.5229376955644902  0.6776107985150905  0.3618422019193397  1.0000
  C   C3        1.0  0.5125242605117609  0.7841773585417406  0.249144704532001  1.0000
  C   C4        1.0  0.4463730391542765  0.8459179649707371  0.22466214952956068  1.0000
  C   C5        1.0  0.38997477349959453  0.8009622643804899  0.3113736178230544  1.0000
  O   O1        1.0  0.3246282738977416  0.866712440014001  0.2843715674062328  1.0000
  C   C6        1.0  0.26003385290770364  0.8007455643166268  0.3107479830380906  1.0000
  C   C7        1.0  0.2028849879279739  0.8872652092735452  0.3441791459516088  1.0000
  C   C8        1.0  0.1374369375545892  0.825850969553644  0.36960498019321975  1.0000
  C   C9        1.0  0.1284811151056303  0.6771027004525574  0.36037390604893066  1.0000
  C   C10       1.0  0.06110531309903059  0.6138555854595013  0.3863805356654253  1.0000
  N   N2        1.0  0.0069391465019517035  0.5630071071848357  0.40728919666160346  1.0000
  C   C11       1.0  0.18515524183639634  0.590219760394991  0.3248159878647541  1.0000
  C   C12       1.0  0.2505942835527363  0.6516782877074911  0.2994384945988078  1.0000
  C   C13       1.0  0.40086801844757364  0.6954159991280013  0.4258650420518064  1.0000
  C   C14       1.0  0.4670104534359128  0.6336715003729814  0.4504157027001159  1.0000
  H   H1        1.0  0.5554849894162408  0.8196212485479681  0.18041789935092223  1.0000
  H   H2        1.0  0.4387824728388478  0.9284219964437309  0.1374644087613477  1.0000
  H   H3        1.0  0.20934721433891468  0.0023942104334997495  0.3512862755624542  1.0000
  H   H4        1.0  0.09388304846342052  0.8942840397870524  0.39623588750411876  1.0000
  H   H5        1.0  0.17868297397712982  0.47524377496540743  0.31596129975711706  1.0000
  H   H6        1.0  0.2934321273303687  0.5834399498365583  0.2690197196858555  1.0000
  H   H7        1.0  0.3586081101187707  0.6624175076923633  0.4973097025826003  1.0000
  H   H8        1.0  0.4746035030441262  0.5523433374487805  0.538822516283294  1.0000
  C   C15       1.0  0.8285093256200247  0.13940773109787785  0.4081348928476104  1.0000
  C   C16       1.0  0.8405471740733566  0.22160359431899046  0.27784594005941465  1.0000
  C   C17       1.0  0.8460235181101432  0.15582264181380867  0.14755399662294602  1.0000
  C   C18       1.0  0.8395427846371684  0.005490988818256825  0.1442197893666628  1.0000
  C   C19       1.0  0.8287323293580727  0.9223274491762784  0.2740552327656669  1.0000
  C   C20       1.0  0.8242212935542598  0.9866919797070426  0.4067346267262835  1.0000
  N   N3        1.0  0.8444259232163305  0.9346474133350606  0.011238384819894255  1.0000
  C   C21       1.0  0.8558209803288505  0.011163158704108547  0.8706229494521237  1.0000
  H   H9        1.0  0.8431068496404891  0.403866412670036  0.6446803202851692  1.0000
  H   H10       1.0  0.8440988989062576  0.338231218581059  0.2760754626856705  1.0000
  H   H11       1.0  0.8546628045400706  0.223463466952483  0.04967478736449539  1.0000
  H   H12       1.0  0.8254395663634159  0.8059049867670655  0.27178473859183794  1.0000
  H   H13       1.0  0.8504141555739899  0.8587616686532917  0.7576553357973758  1.0000
  H   H14       1.0  0.8395036500970103  0.8223108809114482  0.01423004376121462  1.0000
  H   H15       1.0  0.8125815228555612  0.08950296664792211  0.8456216516836409  1.0000
  H   H16       1.0  0.9062613721563081  0.06870371880256565  0.8708165382926554  1.0000
  H   H17       1.0  0.8574478648123672  0.9328903269798535  0.7853210433701294  1.0000
  C   C22       1.0  0.8257211114819087  0.558904154434736  0.984315358515978  1.0000
  C   C23       1.0  0.76361826106722  0.593650907292857  0.05491657762373814  1.0000
  C   C24       1.0  0.7045520014626049  0.6402802672413475  0.9761839402112887  1.0000
  C   C25       1.0  0.7064788012495041  0.6531072952239472  0.8256653598340997  1.0000
  C   C26       1.0  0.7672233374971368  0.6168024857827179  0.7533407080497705  1.0000
  C   C27       1.0  0.8270095449933541  0.5671956212902924  0.8305541510713104  1.0000
  Br  Br1       1.0  0.6256300229227563  0.7180870987402197  0.7183699023799549  1.0000
  H   H18       1.0  0.9222528355492869  0.4278431432551837  0.275292140228901  1.0000
  H   H19       1.0  0.6574306568276073  0.6677986366846735  0.032492118100047485  1.0000
  H   H20       1.0  0.7670763643700504  0.6241717883749114  0.6362781504127973  1.0000
  H   H21       1.0  0.9417482603707354  0.5522680621464937  0.5510955702374063  1.0000
  Zn  Zn1       1.0  0.7500061286563432  0.5630719619283784  0.4074957488656119  1.0000
  Zn  Zn2       1.0  0.9027178349377667  0.5630270676714373  0.40737308593966337  1.0000
  C   C28       1.0  0.8267935153405609  0.5598810828965304  0.670606383278334  1.0000
  C   C29       1.0  0.8259321068637111  0.5662197678765095  0.14426258859999644  1.0000
  C   C30       1.0  0.8250195056947053  0.8264809788376717  0.4012575612673935  1.0000
  C   C31       1.0  0.8277060732886355  0.2996181394247912  0.41361149033590705  1.0000
  O   O2        1.0  0.8839562473638789  0.5686516235914256  0.1978958006128042  1.0000
  O   O3        1.0  0.884674031276093  0.5574140610803815  0.6168796599686969  1.0000
  O   O4        1.0  0.8832407170945432  0.7726968635778314  0.39937857865566145  1.0000
  O   O5        1.0  0.8853895092185543  0.3533688303709155  0.41539677391585195  1.0000
  O   O6        1.0  0.7673344022625258  0.772730199245717  0.39947206092370036  1.0000
  O   O7        1.0  0.7687677075519768  0.5574491292756611  0.6169730625460428  1.0000
  O   O8        1.0  0.7680499213030325  0.5686866245402602  0.19798747093772096  1.0000
  O   O9        1.0  0.7694831833715523  0.35340382205962695  0.41548855228503384  1.0000
