data_image0
_chemical_formula_structural       NC10NC2OCH8C6NCONH8C6NCONH8Zn2C4O8
_chemical_formula_sum              "N6 C31 O11 H24 Zn2"
_cell_length_a       19.251394670931877
_cell_length_b       10.300273812906134
_cell_length_c       10.30027718507466
_cell_angle_alpha    85.539972207837
_cell_angle_beta     89.95614753534201
_cell_angle_gamma    90.0648538162372

_space_group_name_H-M_alt    "P 1"
_space_group_IT_number       1

loop_
  _space_group_symop_operation_xyz
  'x, y, z'

loop_
  _atom_site_type_symbol
  _atom_site_label
  _atom_site_symmetry_multiplicity
  _atom_site_fract_x
  _atom_site_fract_y
  _atom_site_fract_z
  _atom_site_occupancy
  N   N1        1.0  0.6537236839867866  0.42362960151770035  0.5663165580788806  1.0000
  C   C1        1.0  0.5936463528941608  0.42005984470498753  0.5649599308491418  1.0000
  C   C2        1.0  0.5188697525686979  0.41563140905987295  0.5633284297271972  1.0000
  C   C3        1.0  0.48550382808506815  0.3859034362990339  0.4557005862370325  1.0000
  C   C4        1.0  0.40920963116401415  0.3792956829612614  0.45255572680472334  1.0000
  C   C5        1.0  0.37196178323130913  0.4158613938839311  0.5536480529227008  1.0000
  C   C6        1.0  0.2948116358056427  0.41708672974454886  0.553359322911809  1.0000
  C   C7        1.0  0.2589439683240888  0.4029700442625428  0.6726213472511069  1.0000
  C   C8        1.0  0.1863461324641929  0.40462295780936763  0.6757167146580618  1.0000
  C   C9        1.0  0.14854453844171908  0.4213423897546269  0.5596948102511732  1.0000
  C   C10       1.0  0.07379876903893919  0.42320270390791764  0.5629953141341617  1.0000
  N   N2        1.0  0.013709207022702096  0.4246982198377256  0.5656485887630617  1.0000
  C   C11       1.0  0.18362497070518918  0.43692721033184734  0.440489558972627  1.0000
  C   C12       1.0  0.2562327828888669  0.43521419575052356  0.43708507756490733  1.0000
  O   O1        1.0  0.4070422531851989  0.455338965338814  0.6633372487611946  1.0000
  C   C13       1.0  0.4792294022614392  0.4306546118659565  0.6874145014732869  1.0000
  H   H1        1.0  0.5142596272547446  0.3673037778767559  0.36856313655054174  1.0000
  H   H2        1.0  0.384587115467543  0.34600829365302865  0.36681365206251076  1.0000
  H   H3        1.0  0.2870723899647526  0.3894286600418202  0.7636824191189426  1.0000
  H   H4        1.0  0.15972858926376726  0.3928586588728429  0.7686161125340776  1.0000
  H   H5        1.0  0.1548631417283162  0.45110227793040975  0.350127342400411  1.0000
  H   H6        1.0  0.2817631120447033  0.45053258993401607  0.34356799111768327  1.0000
  H   H7        1.0  0.5012869988772006  0.5120086849596988  0.738958801781258  1.0000
  H   H8        1.0  0.48439450838850356  0.33936677227589185  0.7514738286668422  1.0000
  C   C14       1.0  0.8337911203450133  0.0428160036545604  0.5659985768743674  1.0000
  C   C15       1.0  0.8500636616995885  0.052164712494751304  0.43265086731532226  1.0000
  C   C16       1.0  0.8592139568767299  0.9395702521356143  0.3658566977083757  1.0000
  C   C17       1.0  0.849903211608654  0.8170076046048228  0.43266562907069894  1.0000
  C   C18       1.0  0.8336484294726061  0.8055018623191433  0.5659777661321183  1.0000
  C   C19       1.0  0.8259406960020687  0.9190072865974139  0.6320519883700317  1.0000
  N   N3        1.0  0.8747843703363939  0.9475574225820246  0.2288718288395797  1.0000
  C   C20       1.0  0.918557135587706  0.045355253559604895  0.16421896385316126  1.0000
  O   O2        1.0  0.9548212519584399  0.11932976359765911  0.228779981397375  1.0000
  N   N4        1.0  0.9229053387983828  0.056605061669077646  0.0255145337969971  1.0000
  H   H9        1.0  0.8265876297447423  0.36671651236224934  0.61626860722509  1.0000
  H   H10       1.0  0.8542412210029809  0.14700880824568197  0.3801950084288775  1.0000
  H   H11       1.0  0.8560040268463498  0.7306363634628982  0.38011220086395237  1.0000
  H   H12       1.0  0.8134092452091143  0.9109872548670328  0.734905684750271  1.0000
  H   H13       1.0  0.8264567575953998  0.4737661173921097  0.6160572638920638  1.0000
  H   H14       1.0  0.8571150724850226  0.8726744256599812  0.1744066174070358  1.0000
  H   H15       1.0  0.8936170418134134  0.9956914357607564  0.9703272038595432  1.0000
  H   H16       1.0  0.9552776479552332  0.12636712965355562  0.9777498216769165  1.0000
  C   C21       1.0  0.8336980893878205  0.42428672356049835  0.18463598535471926  1.0000
  C   C22       1.0  0.7616903905764978  0.4021631248086037  0.18540408902759808  1.0000
  C   C23       1.0  0.7252458967376323  0.3928166190216902  0.06837510550556325  1.0000
  C   C24       1.0  0.7617579910740586  0.4018901823739216  0.9502697151859434  1.0000
  C   C25       1.0  0.8337414734475728  0.42403107831338716  0.9473403537300684  1.0000
  C   C26       1.0  0.8692879099969499  0.43561045355171224  0.0650490513162383  1.0000
  N   N5        1.0  0.6517048910921268  0.368099795254858  0.06770411803153853  1.0000
  C   C27       1.0  0.6033039359144885  0.41967946500816744  0.15643988559562705  1.0000
  O   O3        1.0  0.621573738292522  0.5070382110692164  0.22853866364408051  1.0000
  N   N6        1.0  0.5331316418646529  0.37482718764701217  0.1604826509049795  1.0000
  H   H17       1.0  0.8612457082602093  0.4307708708052138  0.5119171676399619  1.0000
  H   H18       1.0  0.734200095720335  0.38959913844360194  0.2771765677133149  1.0000
  H   H19       1.0  0.7334965558813846  0.39262870670635297  0.860559442512824  1.0000
  H   H20       1.0  0.9248214567682392  0.45270927929120974  0.06364466996731277  1.0000
  H   H21       1.0  0.8611904783905978  0.4304636582173702  0.6189748574073884  1.0000
  H   H22       1.0  0.6314339364928656  0.3168426392747592  0.9926380416669804  1.0000
  H   H23       1.0  0.5168714222348483  0.3031223029856609  0.1009387077878421  1.0000
  H   H24       1.0  0.4973609955785716  0.41299176112939634  0.22354521230329064  1.0000
  Zn  Zn1       1.0  0.7576077353314286  0.42393449877013345  0.5661312941869271  1.0000
  Zn  Zn2       1.0  0.9098251606361799  0.4243826796964647  0.5658444840860111  1.0000
  C   C28       1.0  0.8337326771304336  0.4189060193777152  0.8031730596329516  1.0000
  C   C29       1.0  0.8337018807474147  0.4294128024695696  0.328802842924226  1.0000
  C   C30       1.0  0.8336715289561117  0.6613396887561958  0.5608067777972031  1.0000
  C   C31       1.0  0.8337629772764124  0.1869775726983549  0.5711691941359689  1.0000
  O   O4        1.0  0.8914688738376708  0.4312975782753949  0.3770777145209248  1.0000
  O   O5        1.0  0.891495187937047  0.41736042298155246  0.7546801320030512  1.0000
  O   O6        1.0  0.8914450313802074  0.6131286742515272  0.5589676460694971  1.0000
  O   O7        1.0  0.8915189784457398  0.23552933617483093  0.5727901031816953  1.0000
  O   O8        1.0  0.7759138655775313  0.6127878421402413  0.5591856751822862  1.0000
  O   O9        1.0  0.7759640218353578  0.4170211511114735  0.754898091830889  1.0000
  O   O10       1.0  0.7759377077018681  0.43095826167526985  0.37729411301767335  1.0000
  O   O11       1.0  0.7759878123143704  0.23519001025376896  0.573006599042271  1.0000
