data_image0
_chemical_formula_structural       NC5NC3F3CH3C6NCH9C9H10Zn2C4O8
_chemical_formula_sum              "N3 C29 F3 H22 Zn2 O8"
_cell_length_a       13.85151926108384
_cell_length_b       9.273386996610926
_cell_length_c       10.297187173949778
_cell_angle_alpha    85.47297527559209
_cell_angle_beta     89.97408904731064
_cell_angle_gamma    89.3985898819531

_space_group_name_H-M_alt    "P 1"
_space_group_IT_number       1

loop_
  _space_group_symop_operation_xyz
  'x, y, z'

loop_
  _atom_site_type_symbol
  _atom_site_label
  _atom_site_symmetry_multiplicity
  _atom_site_fract_x
  _atom_site_fract_y
  _atom_site_fract_z
  _atom_site_occupancy
  N   N1        1.0  0.8984708607734098  0.5786780974571994  0.564832183919441  1.0000
  C   C1        1.0  0.8261861948553088  0.569602494615135  0.6211333257314247  1.0000
  C   C2        1.0  0.7362583875367681  0.5583112001395409  0.6911800003463193  1.0000
  C   C3        1.0  0.6486904523062368  0.5675267481686976  0.623112217957106  1.0000
  C   C4        1.0  0.5612063981313917  0.558311186986554  0.6911799822914375  1.0000
  C   C5        1.0  0.47116694259393027  0.5696025107823972  0.621133410470136  1.0000
  N   N2        1.0  0.3987926753944433  0.5786780595673244  0.5648322789975657  1.0000
  C   C6        1.0  0.561287978118671  0.5388817572873491  0.8274756419757698  1.0000
  C   C7        1.0  0.648887026307458  0.5264753752093694  0.8966854230865903  1.0000
  C   C8        1.0  0.6489470350184605  0.5109125122615525  0.04360421147974869  1.0000
  F   F1        1.0  0.7303916626854375  0.4360763720688745  0.09021278162917001  1.0000
  F   F2        1.0  0.5685228482096478  0.43607634147025864  0.09021287114927368  1.0000
  F   F3        1.0  0.6479766319580684  0.6467834977957361  0.0900062981607257  1.0000
  C   C9        1.0  0.736358305623199  0.5388816620009858  0.8274756597935644  1.0000
  H   H1        1.0  0.6486190797562152  0.5827299615032229  0.5175870464803347  1.0000
  H   H2        1.0  0.49318361549337375  0.5337089182558774  0.8794326981506311  1.0000
  H   H3        1.0  0.804500369593722  0.5337088373217735  0.8794326612893046  1.0000
  C   C10       1.0  0.15160490737723542  0.1550241919145632  0.565470525829677  1.0000
  C   C11       1.0  0.1685956194407515  0.23848373914006982  0.44802017688478424  1.0000
  C   C12       1.0  0.17649643452416974  0.17396479696209055  0.3305625667318888  1.0000
  C   C13       1.0  0.16752646653555048  0.02366372114587678  0.3275521872819487  1.0000
  C   C14       1.0  0.15223720312785183  0.9392412037443015  0.44459454019820127  1.0000
  C   C15       1.0  0.1456679088135727  0.002320875576869772  0.5642051678419231  1.0000
  N   N3        1.0  0.17461197748184246  0.9541080229025694  0.20766954848504837  1.0000
  C   C16       1.0  0.1907371103942672  0.031987195368906374  0.08090917202847137  1.0000
  H   H4        1.0  0.1712569413719074  0.4171980575448955  0.7787322545959348  1.0000
  H   H5        1.0  0.1735202301887933  0.35512941459045577  0.4464265186546952  1.0000
  H   H6        1.0  0.1887008254039193  0.24255485629276174  0.24232804133810615  1.0000
  H   H7        1.0  0.147681087781606  0.8228398542005297  0.44254534246913324  1.0000
  H   H8        1.0  0.18110757106060785  0.8710021636039521  0.8805871185264862  1.0000
  H   H9        1.0  0.1677857484043066  0.8417412685840319  0.21036317866462428  1.0000
  H   H10       1.0  0.13089612415431784  0.11055767370691538  0.058339798498759254  1.0000
  H   H11       1.0  0.260613656475674  0.08953897099909347  0.08111879028815716  1.0000
  H   H12       1.0  0.19319661870797328  0.9545400913918286  0.004008518787768976  1.0000
  C   C17       1.0  0.14876441335787188  0.578620393710344  0.18338475858964132  1.0000
  C   C18       1.0  0.050650614940920935  0.6182464043079119  0.17984366022845522  1.0000
  C   C19       1.0  0.0003840258860485799  0.6385477355409033  0.06141304775647671  1.0000
  C   C20       1.0  0.050270281521993546  0.6183994607831786  0.9446207065287223  1.0000
  C   C21       1.0  0.14850843204055741  0.5787247198098178  0.9462909124511327  1.0000
  C   C22       1.0  0.19711397648244064  0.5590928555999579  0.06606152829845979  1.0000
  C   C23       1.0  0.8942668836139092  0.6814058029616434  0.06701526722371609  1.0000
  C   C24       1.0  0.8270855123218028  0.6233785919679791  0.9668300758226707  1.0000
  C   C25       1.0  0.8546779990164316  0.7825392019752558  0.955492882126459  1.0000
  H   H13       1.0  0.18657331362505136  0.5633643133855726  0.5122866482311359  1.0000
  H   H14       1.0  0.012773377434289303  0.633544579941373  0.2698989596480956  1.0000
  H   H15       1.0  0.01344411607754048  0.6332694294894601  0.8519913954315519  1.0000
  H   H16       1.0  0.27281064839332064  0.5285198383662391  0.06806621389851109  1.0000
  H   H17       1.0  0.33404910406572885  0.5037718450773718  0.7422303401325201  1.0000
  H   H18       1.0  0.8601592374031483  0.6951823303931346  0.16307197185200484  1.0000
  H   H19       1.0  0.8602362758300384  0.558262518593095  0.8924023435295294  1.0000
  H   H20       1.0  0.7521893999733361  0.6038579000851578  0.0019778002003465445  1.0000
  H   H21       1.0  0.9045901641697516  0.8141043157651827  0.8741793532514476  1.0000
  H   H22       1.0  0.7959076160830275  0.8560413134333276  0.9840120982235394  1.0000
  Zn  Zn1       1.0  0.042852953579268105  0.5786742361324291  0.5648397042943702  1.0000
  Zn  Zn2       1.0  0.2544106440320415  0.5786701550520903  0.5648353674108118  1.0000
  C   C26       1.0  0.1485949266075035  0.5729576571121107  0.802093893997823  1.0000
  C   C27       1.0  0.14867096840961683  0.58438855434982  0.327581302436071  1.0000
  C   C28       1.0  0.1467869118092778  0.8421630730597445  0.559268012759687  1.0000
  C   C29       1.0  0.1504789231399528  0.31518140510904535  0.5704072555181761  1.0000
  O   O1        1.0  0.22892469251743497  0.5863165590635773  0.3759733433775203  1.0000
  O   O2        1.0  0.2289086021931066  0.5710254665506476  0.7536981891589498  1.0000
  O   O3        1.0  0.22744752464410123  0.7884122447010484  0.5576145698076727  1.0000
  O   O4        1.0  0.2303856978364985  0.3689297912215461  0.5720568653187081  1.0000
  O   O5        1.0  0.06687782758054596  0.7884145999659353  0.5576182063811188  1.0000
  O   O6        1.0  0.0683388930031757  0.5710295551116377  0.7537017538830721  1.0000
  O   O7        1.0  0.06835498426801756  0.5863205971372538  0.3759753464314659  1.0000
  O   O8        1.0  0.06981598962275726  0.36893381898981525  0.5720589657773887  1.0000
