data_image0
_chemical_formula_structural       NC5NC3F3CH3C6NCH9C6NCH7Zn2C4O8
_chemical_formula_sum              "N4 C27 F3 H19 Zn2 O8"
_cell_length_a       13.85151926108384
_cell_length_b       9.273386996610926
_cell_length_c       9.273390368590327
_cell_angle_alpha    86.07317832945773
_cell_angle_beta     89.99084653650657
_cell_angle_gamma    89.3985898819531

_space_group_name_H-M_alt    "P 1"
_space_group_IT_number       1

loop_
  _space_group_symop_operation_xyz
  'x, y, z'

loop_
  _atom_site_type_symbol
  _atom_site_label
  _atom_site_symmetry_multiplicity
  _atom_site_fract_x
  _atom_site_fract_y
  _atom_site_fract_z
  _atom_site_occupancy
  N   N1        1.0  0.8982762525660951  0.5619482541527019  0.4076206207032178  1.0000
  C   C1        1.0  0.8259992210613042  0.55352895733271  0.47008911828777755  1.0000
  C   C2        1.0  0.7360809120450686  0.5430542014369102  0.5478088657593221  1.0000
  C   C3        1.0  0.6485037468492617  0.5514762789599025  0.47228478289139963  1.0000
  C   C4        1.0  0.5610289226372441  0.5430541880734565  0.5478088457266673  1.0000
  C   C5        1.0  0.4709799688114168  0.5535289744877769  0.47008921230896106  1.0000
  N   N2        1.0  0.39859806720002106  0.561948217371159  0.4076207261964173  1.0000
  C   C6        1.0  0.5611289842638818  0.5252135656231687  0.6990346435303723  1.0000
  C   C7        1.0  0.648737417272534  0.5136139664037158  0.7758258222703558  1.0000
  C   C8        1.0  0.6488173481150884  0.49976374519769645  0.9388384305850066  1.0000
  F   F1        1.0  0.7302682958863632  0.4254709240973989  0.9905526100508873  1.0000
  F   F2        1.0  0.568399481422712  0.42547089454232473  0.9905527093772275  1.0000
  F   F3        1.0  0.6478532371599142  0.6361756428332219  0.9903235079113102  1.0000
  C   C9        1.0  0.7361993117708261  0.5252134705445086  0.6990346632999687  1.0000
  H   H1        1.0  0.6484180651263215  0.5654493786006103  0.3552001429116142  1.0000
  H   H2        1.0  0.49303166699554274  0.5206463933288055  0.7566831944069963  1.0000
  H   H3        1.0  0.804348421090893  0.5206463119650069  0.756683153507796  1.0000
  C   C10       1.0  0.15141038572883936  0.13830178980266572  0.4083288880454831  1.0000
  C   C11       1.0  0.16838517156993027  0.22039221077555537  0.27801275939801595  1.0000
  C   C12       1.0  0.17627005944630605  0.15450405770059206  0.14768857413322278  1.0000
  C   C13       1.0  0.1672996832513838  0.004167889698000856  0.1443484308369254  1.0000
  C   C14       1.0  0.15202629074200516  0.9211097425131618  0.2742118706381391  1.0000
  C   C15       1.0  0.1454732155831171  0.9855837231057311  0.40692491985127566  1.0000
  N   N3        1.0  0.17436893815767673  0.9332147118432296  0.011333573747102752  1.0000
  C   C16       1.0  0.19047688241150373  0.009616230468966194  0.8706875758925774  1.0000
  H   H4        1.0  0.17109133793241996  0.40296166108692183  0.6449517940746903  1.0000
  H   H5        1.0  0.1733095662185251  0.33701930884971315  0.2762445282024677  1.0000
  H   H6        1.0  0.18846248575813696  0.2220655615081073  0.04978863713295612  1.0000
  H   H7        1.0  0.14746989752533082  0.8046845053399974  0.2719381991055785  1.0000
  H   H8        1.0  0.18095577910173888  0.8579530958292627  0.7579640726297061  1.0000
  H   H9        1.0  0.1675430743353632  0.820879357344504  0.014322270333904758  1.0000
  H   H10       1.0  0.13063283577313012  0.08792361617181334  0.8456459015952049  1.0000
  H   H11       1.0  0.2603534569170663  0.06717044963265419  0.870920156215594  1.0000
  H   H12       1.0  0.19292596302602272  0.9312726906435402  0.7853630493090789  1.0000
  C   C17       1.0  0.14851808102547834  0.5574439932972153  0.9843885724540762  1.0000
  C   C18       1.0  0.23720647522855814  0.5545775287047436  0.05799582059629316  1.0000
  C   C19       1.0  0.32425432010156224  0.5651219971088661  0.9825635715917417  1.0000
  C   C20       1.0  0.3248245896254789  0.578923760098816  0.8309127125929696  1.0000
  C   C21       1.0  0.23674168038049917  0.5793572702032705  0.7564998941169652  1.0000
  C   C22       1.0  0.14836556306845713  0.5664415639970448  0.8308651973637025  1.0000
  N   N4        1.0  0.4134924944543086  0.5911293050817841  0.7501042282001218  1.0000
  C   C23       1.0  0.508810353715004  0.59129933517411  0.8170921575501477  1.0000
  H   H13       1.0  0.9966250381817672  0.488145530186227  0.2703433788720728  1.0000
  H   H14       1.0  0.3907800328252087  0.5637945051505588  0.043686785045231824  1.0000
  H   H15       1.0  0.9241643569885989  0.45436259366716447  0.7355598041985312  1.0000
  H   H16       1.0  0.41029309106182965  0.6006903905356382  0.6372125509800894  1.0000
  H   H17       1.0  0.5144273479369201  0.6838438038784911  0.8864073404452634  1.0000
  H   H18       1.0  0.521308966855836  0.4881761298868492  0.8828169803455514  1.0000
  H   H19       1.0  0.5653101835497669  0.6022055846534777  0.7321835262620526  1.0000
  Zn  Zn1       1.0  0.04265834639171364  0.5619444804934244  0.4076289648772069  1.0000
  Zn  Zn2       1.0  0.25421603625640743  0.5619403488577559  0.40762415292150983  1.0000
  C   C24       1.0  0.14843249099739  0.5589935887833988  0.6708725208589135  1.0000
  C   C25       1.0  0.1484441890734543  0.5648930622991633  0.14438073533158446  1.0000
  C   C26       1.0  0.14659154910248007  0.8253683678550712  0.40144693751551364  1.0000
  C   C27       1.0  0.15028507091021592  0.29851655077184014  0.4138063983889055  1.0000
  O   O1        1.0  0.22870447512352812  0.5673851761387414  0.19807375105687886  1.0000
  O   O2        1.0  0.2287396041439147  0.5564972463858275  0.6171754398844957  1.0000
  O   O3        1.0  0.22725193773107133  0.7715982652058078  0.3996123726429388  1.0000
  O   O4        1.0  0.23019206929322025  0.35228416649161565  0.41563671021782245  1.0000
  O   O5        1.0  0.06668224116063426  0.771600662862465  0.3996164075749533  1.0000
  O   O6        1.0  0.06816989543735863  0.5565013765010351  0.6171793950966469  1.0000
  O   O7        1.0  0.06813476714572331  0.567389237562147  0.198075973529932  1.0000
  O   O8        1.0  0.06962236136430033  0.3522882187450662  0.41563904076554786  1.0000
