data_image0
_chemical_formula_structural       NC9NC3OH6C7OH6C6ClH3Zn2C4O8
_chemical_formula_sum              "N2 C29 O10 H15 Cl1 Zn2"
_cell_length_a       15.78231758774541
_cell_length_b       9.274078303013075
_cell_length_c       10.302974078461048
_cell_angle_alpha    85.73623370139752
_cell_angle_beta     90.08385130592438
_cell_angle_gamma    89.04960325712263

_space_group_name_H-M_alt    "P 1"
_space_group_IT_number       1

loop_
  _space_group_symop_operation_xyz
  'x, y, z'

loop_
  _atom_site_type_symbol
  _atom_site_label
  _atom_site_symmetry_multiplicity
  _atom_site_fract_x
  _atom_site_fract_y
  _atom_site_fract_z
  _atom_site_occupancy
  N   N1        1.0  0.7884986702431539  0.5693840381410401  0.5746995621855775  1.0000
  C   C1        1.0  0.7405110788737302  0.4782556363526661  0.5985210798612487  1.0000
  C   C2        1.0  0.6809325413842976  0.3651431389730929  0.628089723887499  1.0000
  C   C3        1.0  0.7014440309630673  0.22305561448303754  0.6651533224512287  1.0000
  C   C4        1.0  0.6251248624276136  0.1541944379645852  0.6831903195019592  1.0000
  C   C5        1.0  0.5627159249595856  0.25935546785777386  0.655800281174272  1.0000
  C   C6        1.0  0.469741104054115  0.23991280066691  0.6609560162997645  1.0000
  C   C7        1.0  0.41528376245985316  0.3591260091050674  0.6297409978793806  1.0000
  C   C8        1.0  0.3271725255657096  0.34318348813496735  0.6339757353897524  1.0000
  C   C9        1.0  0.2719979635770814  0.465865266714571  0.6018442561335782  1.0000
  N   N2        1.0  0.2276506050656752  0.5644855885906992  0.5760134052237951  1.0000
  C   C10       1.0  0.292838403115339  0.20785032658996175  0.6694739817104727  1.0000
  C   C11       1.0  0.3463633397081873  0.08888358810915202  0.7006288196019804  1.0000
  C   C12       1.0  0.43429153098916795  0.10438814245558653  0.6965091456525998  1.0000
  O   O1        1.0  0.5984297482461385  0.38398495784145775  0.6232420988253886  1.0000
  H   H1        1.0  0.7641907178468158  0.1751386039078544  0.6776016647806176  1.0000
  H   H2        1.0  0.6170691847893458  0.04096860061839712  0.7127405483338161  1.0000
  H   H3        1.0  0.44126003531681024  0.4644392053269985  0.6021123478648036  1.0000
  H   H4        1.0  0.2248027830933388  0.19434783980470138  0.6730584624440323  1.0000
  H   H5        1.0  0.3196524496438428  0.9842903675516381  0.728069009280806  1.0000
  H   H6        1.0  0.4739409418959428  0.01015810754197499  0.7211942184430666  1.0000
  C   C13       1.0  0.010604363100267914  0.14343916190877604  0.5741998718797616  1.0000
  C   C14       1.0  0.9942199519423389  0.22708621948694852  0.4569556193101166  1.0000
  C   C15       1.0  0.9705141139831723  0.16224842962610442  0.3441239880283302  1.0000
  C   C16       1.0  0.9629675203174825  0.011688959150408575  0.34846399739083855  1.0000
  C   C17       1.0  0.9803054930476264  0.9269726665920157  0.46329491738668677  1.0000
  C   C18       1.0  0.005553078278033082  0.9904192762834763  0.5765243345493759  1.0000
  C   C19       1.0  0.9530568315626555  0.25336085785865214  0.22324577986496189  1.0000
  O   O2        1.0  0.9312786327772946  0.19830674982726879  0.12038609032470249  1.0000
  H   H7        1.0  0.007997966678593866  0.22009602776818316  0.8938374128746842  1.0000
  H   H8        1.0  0.9980101888180551  0.3439095549452904  0.45416683513626843  1.0000
  H   H9        1.0  0.9444315919220617  0.9590441643383654  0.2627013303595622  1.0000
  H   H10       1.0  0.9758885264085658  0.810584787764756  0.46258722017640014  1.0000
  H   H11       1.0  0.007507716511097713  0.6915071313725561  0.7912365983546086  1.0000
  H   H12       1.0  0.9589065236688379  0.36961019274474993  0.22189909064706398  1.0000
  C   C20       1.0  0.008078720573358995  0.5669292497402607  0.19411959236983514  1.0000
  C   C21       1.0  0.9942320899108603  0.4173084909263699  0.20289809728229558  1.0000
  C   C22       1.0  0.9873618129339448  0.3430707451355266  0.09029696090850138  1.0000
  C   C23       1.0  0.9942321273239128  0.41730857194947535  0.96779019864809  1.0000
  C   C24       1.0  0.008078718855877964  0.5669291753224792  0.9566046112324923  1.0000
  C   C25       1.0  0.014934553102111224  0.6410102474103274  0.07041975373108046  1.0000
  Cl  Cl1       1.0  0.9700640845078847  0.15615887262790729  0.10276694177863632  1.0000
  H   H13       1.0  0.9887249730752103  0.35780082106819266  0.296914743431987  1.0000
  H   H14       1.0  0.9887250324119359  0.3578007998295078  0.8817137774787589  1.0000
  H   H15       1.0  0.025613452257459143  0.7564022678492968  0.06272118211512723  1.0000
  Zn  Zn1       1.0  0.9152284517576861  0.5679665992465437  0.5750861893165407  1.0000
  Zn  Zn2       1.0  0.10092086525516647  0.5658912571776598  0.57563735859062  1.0000
  C   C26       1.0  0.008111080507367417  0.5611840659374412  0.8124628166090673  1.0000
  C   C27       1.0  0.008040253408816641  0.572675587448532  0.3382608697347647  1.0000
  C   C28       1.0  0.00650350488901563  0.8303220716809256  0.5709114636537349  1.0000
  C   C29       1.0  0.009647775996704633  0.3035358497568068  0.5798122869626483  1.0000
  O   O3        1.0  0.07849668417751426  0.5738102377880684  0.38684514776588297  1.0000
  O   O4        1.0  0.0785909014416768  0.5584731910433776  0.7642964865959571  1.0000
  O   O5        1.0  0.07729181383934919  0.775805545012783  0.5692420613641653  1.0000
  O   O6        1.0  0.07979570835407568  0.35647789484327785  0.5818994754955213  1.0000
  O   O7        1.0  0.9363535452910601  0.7773799622907074  0.5688240722167275  1.0000
  O   O8        1.0  0.9376526225561347  0.5600493409793258  0.7638784329810562  1.0000
  O   O9        1.0  0.9375584056480764  0.5753863374684476  0.38642553313014094  1.0000
  O   O10       1.0  0.9388574298826871  0.3580539842088244  0.5814799581670216  1.0000
