data_image0
_chemical_formula_structural       NC5NC3BrH3C6BrH5C7ONH5Zn2C4O8
_chemical_formula_sum              "N3 C25 Br2 H13 O9 Zn2"
_cell_length_a       13.839083392302014
_cell_length_b       9.276564384272257
_cell_length_c       9.27304215883966
_cell_angle_alpha    86.1127255114725
_cell_angle_beta     90.09396774382412
_cell_angle_gamma    90.61189963838827

_space_group_name_H-M_alt    "P 1"
_space_group_IT_number       1

loop_
  _space_group_symop_operation_xyz
  'x, y, z'

loop_
  _atom_site_type_symbol
  _atom_site_label
  _atom_site_symmetry_multiplicity
  _atom_site_fract_x
  _atom_site_fract_y
  _atom_site_fract_z
  _atom_site_occupancy
  N   N1        1.0  0.9188719008303107  0.562097446018293  0.40877611724402985  1.0000
  C   C1        1.0  0.8464358612177426  0.4984767099492897  0.41129409102494674  1.0000
  C   C2        1.0  0.7561871458489479  0.4193105158000474  0.41442716329961193  1.0000
  C   C3        1.0  0.6691496332173931  0.4954855853994169  0.4114126616987357  1.0000
  C   C4        1.0  0.5805940066022335  0.4207827561506025  0.41436884183167577  1.0000
  C   C5        1.0  0.49137008718936437  0.499308450791073  0.4112611572512537  1.0000
  N   N2        1.0  0.4196456613145887  0.56243695107702  0.40876262544203557  1.0000
  C   C6        1.0  0.5790079381589252  0.2695934568517042  0.420351894731235  1.0000
  C   C7        1.0  0.6655995788966725  0.1932971582805285  0.42337110240499864  1.0000
  C   C8        1.0  0.7543463696364606  0.267286096938844  0.42044319342854636  1.0000
  Br  Br1       1.0  0.8709994542072326  0.15723173818660663  0.4247984915778905  1.0000
  H   H1        1.0  0.6703236113315064  0.6126444945571272  0.40677610266524866  1.0000
  H   H2        1.0  0.5109126062075187  0.21076009709730206  0.42267985458226925  1.0000
  H   H3        1.0  0.6636641006384456  0.07638737006844631  0.4279974254211879  1.0000
  C   C9        1.0  0.16635255382102643  0.13878813115459998  0.40913804163727696  1.0000
  C   C10       1.0  0.15381621124479516  0.22089177978322794  0.2774028076921353  1.0000
  C   C11       1.0  0.15027407282102412  0.15452632466027016  0.1468978078680072  1.0000
  C   C12       1.0  0.15924392335122953  0.0051121085277812135  0.14565002009845562  1.0000
  C   C13       1.0  0.17007565992460827  0.9212929993473736  0.2753932356097737  1.0000
  C   C14       1.0  0.17217419472715934  0.9857352490002325  0.4084131534401332  1.0000
  Br  Br2       1.0  0.1551079924017782  0.9148659087883452  0.9665743389422858  1.0000
  H   H4        1.0  0.13829004730643613  0.4037889390221127  0.6434685174326644  1.0000
  H   H5        1.0  0.14904478815920896  0.33751895507124074  0.27493538091861947  1.0000
  H   H6        1.0  0.14147397032485154  0.21968342009522845  0.04649940225958836  1.0000
  H   H7        1.0  0.17454291645642162  0.8050233238387133  0.272285583685258  1.0000
  H   H8        1.0  0.2257402836461575  0.6902026850184916  0.6328982146891047  1.0000
  C   C15       1.0  0.16877067609187701  0.5578045309046957  0.9855145432869121  1.0000
  C   C16       1.0  0.08008287290671534  0.5669273894083422  0.058189879191931304  1.0000
  C   C17       1.0  0.993235887055669  0.5900002428317388  0.9819162612946147  1.0000
  C   C18       1.0  0.995600442188284  0.6022087687509363  0.830407052464865  1.0000
  C   C19       1.0  0.08269181585967722  0.5909675658562858  0.7567241404875822  1.0000
  C   C20       1.0  0.1697560972243488  0.5667188401416992  0.8320367285334989  1.0000
  C   C21       1.0  0.9009677873490533  0.5998929689332733  0.06177024566114531  1.0000
  O   O1        1.0  0.8941287105507546  0.5440828812177296  0.189188801314382  1.0000
  N   N3        1.0  0.8192776520667947  0.6729978636450169  0.9981733815895524  1.0000
  H   H9        1.0  0.4035889748661796  0.6130467394166401  0.0854211504811182  1.0000
  H   H10       1.0  0.9299884468662543  0.6164225428411203  0.7677734846668743  1.0000
  H   H11       1.0  0.3279850504964368  0.5972363455171665  0.5490846677158253  1.0000
  H   H12       1.0  0.8243591915980331  0.7352739850399483  0.9004541330927105  1.0000
  H   H13       1.0  0.7539659022108383  0.6727912738322372  0.054417738875170096  1.0000
  Zn  Zn1       1.0  0.06338437686934272  0.5621916411499994  0.40878055701370064  1.0000
  Zn  Zn2       1.0  0.2751331099393788  0.5623310605808511  0.40877002442935606  1.0000
  C   C22       1.0  0.16952816200463694  0.5592889250422819  0.6720308025715072  1.0000
  C   C23       1.0  0.1689916497653552  0.5652355992543381  0.14551991866754663  1.0000
  C   C24       1.0  0.17106211766730928  0.8255837510911084  0.4028065640831089  1.0000
  C   C25       1.0  0.16745761002784318  0.2989390413782294  0.4147442354866093  1.0000
  O   O2        1.0  0.24942330796643986  0.5677761512792003  0.19921519263587562  1.0000
  O   O3        1.0  0.2498088847106838  0.5568530968682028  0.6183271206345908  1.0000
  O   O4        1.0  0.2510464917943007  0.7718895517294218  0.4009266420196599  1.0000
  O   O5        1.0  0.24818562857243287  0.3527397055483954  0.41661556317460574  1.0000
  O   O6        1.0  0.09033178597684  0.7717829961363692  0.40093501826446243  1.0000
  O   O7        1.0  0.08909419070861424  0.5567482730563456  0.6183354185447412  1.0000
  O   O8        1.0  0.08870861166601696  0.5676712589657613  0.19922175767344075  1.0000
  O   O9        1.0  0.08747093232295144  0.35263480405845593  0.4166222362843831  1.0000
