data_image0
_chemical_formula_structural       NC5OC5NC4H8C6NH7C6NCH7Zn2C4O8
_chemical_formula_sum              "N4 C31 O9 H22 Zn2"
_cell_length_a       19.189071930511275
_cell_length_b       9.274771166103582
_cell_length_c       9.273390368590327
_cell_angle_alpha    86.06293122453995
_cell_angle_beta     89.96896470301299
_cell_angle_gamma    90.58817672672019

_space_group_name_H-M_alt    "P 1"
_space_group_IT_number       1

loop_
  _space_group_symop_operation_xyz
  'x, y, z'

loop_
  _atom_site_type_symbol
  _atom_site_label
  _atom_site_symmetry_multiplicity
  _atom_site_fract_x
  _atom_site_fract_y
  _atom_site_fract_z
  _atom_site_occupancy
  N   N1        1.0  0.6642034312912655  0.5615557468980314  0.4068227564006237  1.0000
  C   C1        1.0  0.6100049722833794  0.6125635588529543  0.3864291061250096  1.0000
  C   C2        1.0  0.5425890685783159  0.6760087735021683  0.3610624713554304  1.0000
  C   C3        1.0  0.5334381451534088  0.7824663620698464  0.2483130160790534  1.0000
  C   C4        1.0  0.46795127513179896  0.8441778842605935  0.22381182715201484  1.0000
  C   C5        1.0  0.4109560096616792  0.799300834668776  0.31055622160234986  1.0000
  O   O1        1.0  0.3463185341710455  0.8650192617094096  0.2835340659115093  1.0000
  C   C6        1.0  0.28101392725122293  0.7990836429958366  0.30993045225482785  1.0000
  C   C7        1.0  0.22468466784891994  0.8856190491666398  0.3433545389394376  1.0000
  C   C8        1.0  0.1585740142396884  0.824234634941418  0.36879921005534166  1.0000
  C   C9        1.0  0.148129766241617  0.6754995216209894  0.3595938595914647  1.0000
  C   C10       1.0  0.08007187866688331  0.6122829737143196  0.38561983822990764  1.0000
  N   N2        1.0  0.0253573386338052  0.5614590705099594  0.40654405523243076  1.0000
  C   C11       1.0  0.2039841118767637  0.5885990968443437  0.32404248913488054  1.0000
  C   C12       1.0  0.2700861250224433  0.6500278327851339  0.29864616414827183  1.0000
  C   C13       1.0  0.4205941069345084  0.6938648945614719  0.4250999136139425  1.0000
  C   C14       1.0  0.48607203926277703  0.6321495374140709  0.44966922806697607  1.0000
  H   H1        1.0  0.5768701545960305  0.8178479402439545  0.1795601496140575  1.0000
  H   H2        1.0  0.4613380607611554  0.9265975939399255  0.13657387534695653  1.0000
  H   H3        1.0  0.23229897583167222  0.000737836582157315  0.35044174823206675  1.0000
  H   H4        1.0  0.11566808581038625  0.8926803287550513  0.39542457333565445  1.0000
  H   H5        1.0  0.1963641825166488  0.47363184563702254  0.3152072011142928  1.0000
  H   H6        1.0  0.312284204566837  0.5817736836412264  0.26823183172290954  1.0000
  H   H7        1.0  0.3778831683829604  0.6609306396890564  0.49657093366317673  1.0000
  H   H8        1.0  0.49269763509219333  0.5509065401851487  0.5381163686072289  1.0000
  C   C15       1.0  0.8426442260035063  0.13791979768727303  0.407470631398124  1.0000
  C   C16       1.0  0.826611175303239  0.21986303467475343  0.2785963780635492  1.0000
  C   C17       1.0  0.8170846164759353  0.15343770274925328  0.14889937359265626  1.0000
  C   C18       1.0  0.823627663776246  0.0036816664819014906  0.14713713347279533  1.0000
  C   C19       1.0  0.8383721114463765  0.9204005290920199  0.2742418558627362  1.0000
  C   C20       1.0  0.8469231880743553  0.9850841261621571  0.4059086727902667  1.0000
  N   N3        1.0  0.8014797547890168  0.23846526819934197  0.018608251093959582  1.0000
  H   H9        1.0  0.9210646302414831  0.2209114631040352  0.7228353386602888  1.0000
  H   H10       1.0  0.8230974495464664  0.33645079895023056  0.2780454586580552  1.0000
  H   H11       1.0  0.8166277665156952  0.9511357037416143  0.04734811915229509  1.0000
  H   H12       1.0  0.8414433437831614  0.8041918226817936  0.2701117672367448  1.0000
  H   H13       1.0  0.8969179341278941  0.6902852098574875  0.6204709263816024  1.0000
  H   H14       1.0  0.7966783615093114  0.3505399566274692  0.018565144494203212  1.0000
  H   H15       1.0  0.794545408704556  0.18996168647090841  0.9211894223129183  1.0000
  C   C21       1.0  0.8447932817872366  0.5570037871162699  0.9834521335767161  1.0000
  C   C22       1.0  0.9087834275054841  0.5541205956074968  0.05701051119512934  1.0000
  C   C23       1.0  0.9717249164579381  0.5646467734445539  0.9815277526699191  1.0000
  C   C24       1.0  0.972276075072456  0.5784464909939766  0.8298739484258014  1.0000
  C   C25       1.0  0.9086984013841168  0.5788969522263214  0.7555101262752175  1.0000
  C   C26       1.0  0.844774138542382  0.5660001256214855  0.829927130563905  1.0000
  N   N4        1.0  0.03640378419540013  0.5906331996008396  0.7490137356063795  1.0000
  C   C27       1.0  0.10521005871545341  0.5907847966121501  0.8159485224958738  1.0000
  H   H16       1.0  0.7344498152980025  0.4877443770287589  0.2695047658006595  1.0000
  H   H17       1.0  0.019732636083825472  0.5633066191683429  0.04261415142814573  1.0000
  H   H18       1.0  0.6818030692186643  0.4539801723097592  0.7347679968371373  1.0000
  H   H19       1.0  0.03419096340448813  0.6001935623042984  0.6361220208772935  1.0000
  H   H20       1.0  0.11020012240102851  0.6833152037696788  0.8852429575982748  1.0000
  H   H21       1.0  0.11318969056147862  0.48767363747364095  0.8816860131781556  1.0000
  H   H22       1.0  0.14610432543543417  0.601678604693745  0.7310063338404937  1.0000
  Zn  Zn1       1.0  0.7684246367517171  0.561524088495214  0.4067506531353233  1.0000
  Zn  Zn2       1.0  0.9211360909071923  0.5614790981902467  0.4066279642851964  1.0000
  C   C28       1.0  0.844747163092924  0.5585531818465863  0.6699358346686612  1.0000
  C   C29       1.0  0.8448152413598742  0.5644518258710978  0.14344291951672994  1.0000
  C   C30       1.0  0.8461109076677938  0.8248909650468477  0.40046056623768944  1.0000
  C   C31       1.0  0.8434514359201231  0.29811231046971187  0.4129182680249013  1.0000
  O   O2        1.0  0.9027757803974565  0.5669280891722797  0.19709074063571475  1.0000
  O   O3        1.0  0.9026910787699127  0.5560416793545571  0.6161944826689045  1.0000
  O   O4        1.0  0.9037915384902332  0.771112823747338  0.39859129469092824  1.0000
  O   O5        1.0  0.9016752686216261  0.3518569539650196  0.41469382057158444  1.0000
  O   O6        1.0  0.7878854069243667  0.7711462327372838  0.3986847968832189  1.0000
  O   O7        1.0  0.7867849559560112  0.5560768205624698  0.616287904818279  1.0000
  O   O8        1.0  0.7868696574152371  0.5669631616978819  0.19718243005866265  1.0000
  O   O9        1.0  0.7857691455820001  0.3518920173219433  0.414785618070923  1.0000
