data_image0
_chemical_formula_structural       NC3SC3NH2C12H9C6H4Zn2C4O8
_chemical_formula_sum              "N2 C28 S1 H15 Zn2 O8"
_cell_length_a       14.05945120258396
_cell_length_b       14.994057918209652
_cell_length_c       10.681121600428288
_cell_angle_alpha    85.56355070602301
_cell_angle_beta     89.94781957656271
_cell_angle_gamma    90.05308548376159

_space_group_name_H-M_alt    "P 1"
_space_group_IT_number       1

loop_
  _space_group_symop_operation_xyz
  'x, y, z'

loop_
  _atom_site_type_symbol
  _atom_site_label
  _atom_site_symmetry_multiplicity
  _atom_site_fract_x
  _atom_site_fract_y
  _atom_site_fract_z
  _atom_site_occupancy
  N   N1        1.0  0.895461972449007  0.977290072198734  0.6175697246249618  1.0000
  C   C1        1.0  0.8193148505530439  0.953986817212258  0.645377579988228  1.0000
  C   C2        1.0  0.7247231461154988  0.9250427369716331  0.67991658406868  1.0000
  C   C3        1.0  0.7064894599016808  0.8527626259545497  0.7661682290885872  1.0000
  S   S1        1.0  0.5877709567129734  0.8410934918015236  0.780092338740547  1.0000
  C   C4        1.0  0.5598187031482328  0.9274182204428297  0.6770811171770146  1.0000
  C   C5        1.0  0.642799748889547  0.9671228569584499  0.6297021308094126  1.0000
  C   C6        1.0  0.4648830124239035  0.9553366820205922  0.6437661780609572  1.0000
  N   N2        1.0  0.3883847048663533  0.9778331928599034  0.6169213184384037  1.0000
  H   H1        1.0  0.7592825472864597  0.811178075044095  0.8157913746145525  1.0000
  H   H2        1.0  0.6440405627672032  0.024382274480664993  0.5613748515927086  1.0000
  C   C7        1.0  0.1419675267270455  0.7155934970047886  0.6172325638651757  1.0000
  C   C8        1.0  0.1969192801856563  0.6632261189992075  0.7047015334641558  1.0000
  C   C9        1.0  0.19687169399597382  0.5700024206196683  0.7047534227082164  1.0000
  C   C10       1.0  0.1419530532845994  0.5270925496994617  0.6172992522017109  1.0000
  C   C11       1.0  0.08705498458740957  0.5795591987644237  0.5298337826366462  1.0000
  C   C12       1.0  0.08703997658753364  0.672782859465667  0.529848278583533  1.0000
  C   C13       1.0  0.1419307892893078  0.42801802468100236  0.6173095639394883  1.0000
  C   C14       1.0  0.1433946453438386  0.3865862015778458  0.5036758889705799  1.0000
  C   C15       1.0  0.14341342260260917  0.2933618322692627  0.5036748195796246  1.0000
  C   C16       1.0  0.14188829552716745  0.23952291639297962  0.6172693117204853  1.0000
  C   C17       1.0  0.14038405370267748  0.2808527158581607  0.730949999460546  1.0000
  C   C18       1.0  0.1404455789305703  0.3740735502789497  0.7309512528205384  1.0000
  H   H3        1.0  0.08648849020642738  0.9332165496470652  0.5286886965174917  1.0000
  H   H4        1.0  0.2402232054620626  0.6942622558621784  0.7730282383226514  1.0000
  H   H5        1.0  0.24087250714833383  0.5315199186907819  0.7722479039386567  1.0000
  H   H6        1.0  0.04303941490706431  0.5484430238915549  0.4623505256777565  1.0000
  H   H7        1.0  0.04374420890059927  0.711247290727384  0.4615022107213462  1.0000
  H   H8        1.0  0.14581887732393337  0.42629144239418837  0.4146312554611502  1.0000
  H   H9        1.0  0.14486801614586886  0.26353811769981855  0.41455166770254914  1.0000
  H   H10       1.0  0.13891404857724665  0.24117741021851766  0.8200647236842322  1.0000
  H   H11       1.0  0.13803802364753892  0.40396644597776005  0.8199926402458872  1.0000
  C   C19       1.0  0.14192791861132895  0.9775581989049804  0.24950571294315102  1.0000
  C   C20       1.0  0.07385730412579197  0.9278686850822443  0.18816928938415045  1.0000
  C   C21       1.0  0.07385724473323041  0.9278687422180953  0.05728714951338154  1.0000
  C   C22       1.0  0.14192784383319124  0.9775582425525069  0.9849961487209155  1.0000
  C   C23       1.0  0.20994227482598116  0.02720657889882272  0.046332062956778726  1.0000
  C   C24       1.0  0.2099422626590959  0.0272065650523885  0.17722436163485966  1.0000
  H   H12       1.0  0.020500342973504667  0.8889196957204486  0.24127358555809586  1.0000
  H   H13       1.0  0.020500323102828226  0.8889197376905256  0.012769556361638347  1.0000
  H   H14       1.0  0.26330620371609514  0.06616070066486435  0.9932720933441774  1.0000
  H   H15       1.0  0.2633061557990668  0.0661606693394781  0.22169646088942388  1.0000
  Zn  Zn1       1.0  0.03770883369262856  0.9774444217649738  0.6173898452286388  1.0000
  Zn  Zn2       1.0  0.24613785472757457  0.977671560731197  0.6171114726290696  1.0000
  C   C25       1.0  0.14192629891391673  0.9740043368186598  0.845972477044046  1.0000
  C   C26       1.0  0.14192266537443257  0.9811127737507275  0.38852896076575544  1.0000
  C   C27       1.0  0.14189835459642053  0.14048910460748254  0.6122720785269271  1.0000
  C   C28       1.0  0.14195053873180563  0.8146269340886856  0.6222294260678862  1.0000
  O   O1        1.0  0.2210186301746811  0.9823880277098752  0.4350807915042703  1.0000
  O   O2        1.0  0.22102313846176003  0.9729008030928494  0.7992090074052626  1.0000
  O   O3        1.0  0.22099950679670619  0.10733935740763023  0.6104942836227782  1.0000
  O   O4        1.0  0.22104219071606912  0.8479494796991796  0.6237954214860508  1.0000
  O   O5        1.0  0.06280442657753826  0.10716650272045056  0.6107058964600658  1.0000
  O   O6        1.0  0.06282805807611959  0.9727290202023477  0.7994205535459455  1.0000
  O   O7        1.0  0.06282354985708838  0.9822162137323791  0.43529083202010393  1.0000
  O   O8        1.0  0.06284711039554636  0.8477776593410574  0.6240055558909963  1.0000
