data_image0
_chemical_formula_structural       NC7NC8NOH9C12H10C12H10Zn2C4O8
_chemical_formula_sum              "N3 C43 O9 H29 Zn2"
_cell_length_a       21.38721084674475
_cell_length_b       13.024581838241813
_cell_length_c       13.024585202197208
_cell_angle_alpha    84.12653577963174
_cell_angle_beta     93.68759365923059
_cell_angle_gamma    93.21244007102088

_space_group_name_H-M_alt    "P 1"
_space_group_IT_number       1

loop_
  _space_group_symop_operation_xyz
  'x, y, z'

loop_
  _atom_site_type_symbol
  _atom_site_label
  _atom_site_symmetry_multiplicity
  _atom_site_fract_x
  _atom_site_fract_y
  _atom_site_fract_z
  _atom_site_occupancy
  N   N1        1.0  0.5835291048044278  0.11580038972622388  0.8323277264564841  1.0000
  C   C1        1.0  0.5293479692349368  0.11679006503334113  0.8279925615729533  1.0000
  C   C2        1.0  0.46195408869027776  0.11802037854373104  0.8225997779268244  1.0000
  C   C3        1.0  0.4321803435825269  0.20920610179204016  0.7874473429543194  1.0000
  C   C4        1.0  0.366705823055701  0.2104272131045912  0.7824092869225222  1.0000
  C   C5        1.0  0.3304430668189083  0.12026674327164892  0.8105656144798759  1.0000
  C   C6        1.0  0.3605264615073517  0.029596435889196023  0.8484226346451922  1.0000
  C   C7        1.0  0.4259918568883247  0.0283198659114339  0.8535058173923538  1.0000
  N   N2        1.0  0.2635305057170005  0.12491402796227137  0.808841762986504  1.0000
  C   C8        1.0  0.22197274699146874  0.05807993626043095  0.7735750100750169  1.0000
  C   C9        1.0  0.1543853326510404  0.07011620176488556  0.7859760180707485  1.0000
  C   C10       1.0  0.10902999780877565  0.9993333011755516  0.7470285415863392  1.0000
  C   C11       1.0  0.045224958157806805  0.010041190748614204  0.7584300073608612  1.0000
  C   C12       1.0  0.025822085799496818  0.09151923503337071  0.8088840670002861  1.0000
  C   C13       1.0  0.0704774453610357  0.16235023393099884  0.8479754859413031  1.0000
  C   C14       1.0  0.13431365883337473  0.15185268021804155  0.8366989952912727  1.0000
  C   C15       1.0  0.9601179642712313  0.10242520384398102  0.8205580692524064  1.0000
  N   N3        1.0  0.907297417357806  0.11119280667266976  0.8299430616309712  1.0000
  O   O1        1.0  0.23948255990656284  0.9763871945535499  0.7214943605129391  1.0000
  H   H1        1.0  0.4595380906283126  0.2793416577748429  0.7643426047416556  1.0000
  H   H2        1.0  0.3441035651415662  0.2814725922885719  0.755871290055457  1.0000
  H   H3        1.0  0.33335837802165635  0.960423550490765  0.8749487234441904  1.0000
  H   H4        1.0  0.44853648105466803  0.9577195560445694  0.8821943569083166  1.0000
  H   H5        1.0  0.12272315189371633  0.9355483448867663  0.7076941910313395  1.0000
  H   H6        1.0  0.01103808245084891  0.9547328910315035  0.7278839877462634  1.0000
  H   H7        1.0  0.05597172211555412  0.22572394941061932  0.8872040828066925  1.0000
  H   H8        1.0  0.16783129551783924  0.20777103566493227  0.8677416417163062  1.0000
  H   H9        1.0  0.2833971590463481  0.9705330302267261  0.6988498200127589  1.0000
  C   C16       1.0  0.7337332878571037  0.8107880403739837  0.8388194191892722  1.0000
  C   C17       1.0  0.702927691639106  0.7484295680238108  0.7672706349229683  1.0000
  C   C18       1.0  0.7231938938031968  0.6498112947930181  0.7579416130065202  1.0000
  C   C19       1.0  0.774277944236362  0.6115119049768193  0.8204507501882716  1.0000
  C   C20       1.0  0.8055098319645162  0.6738993332120544  0.89113899482762  1.0000
  C   C21       1.0  0.7852918618930461  0.7725485152999726  0.900534530679844  1.0000
  C   C22       1.0  0.7964137908616917  0.5077183343494873  0.8094331002214368  1.0000
  C   C23       1.0  0.8579595824836492  0.5010547132026795  0.779566759511245  1.0000
  C   C24       1.0  0.8802112849941274  0.40624044295201883  0.7616065026184379  1.0000
  C   C25       1.0  0.8413482098793319  0.31683821305948534  0.7729745876285625  1.0000
  C   C26       1.0  0.7803116377937945  0.32162156142023807  0.8035971337308028  1.0000
  C   C27       1.0  0.7570993194177122  0.4161971834045635  0.8234604537278847  1.0000
  H   H10       1.0  0.729117947728437  0.048064915321909735  0.927611901509205  1.0000
  H   H11       1.0  0.663242616194076  0.7758775386032712  0.7183124570376069  1.0000
  H   H12       1.0  0.6991206439760529  0.6032724025250474  0.7018555715991802  1.0000
  H   H13       1.0  0.845323648966719  0.6458561682501052  0.9394562674606775  1.0000
  H   H14       1.0  0.810095032529499  0.8188047572549606  0.9561062947338488  1.0000
  H   H15       1.0  0.8885121964090635  0.5699830733814751  0.7683441272701286  1.0000
  H   H16       1.0  0.9275612801819214  0.40222727771412636  0.7380494220870457  1.0000
  H   H17       1.0  0.8586791565177115  0.24341438618474362  0.758677092776153  1.0000
  H   H18       1.0  0.7515580096420319  0.2505868347702876  0.813603936683478  1.0000
  H   H19       1.0  0.6057318790259298  0.3334700734926143  0.8672629420280488  1.0000
  C   C28       1.0  0.732563272802116  0.11243766745148984  0.5290467430493768  1.0000
  C   C29       1.0  0.7219313134891704  0.1950066093019034  0.4526289211127108  1.0000
  C   C30       1.0  0.743215520940544  0.19312463570447225  0.35363164692197624  1.0000
  C   C31       1.0  0.775069884290528  0.10839816871202458  0.3290626474636784  1.0000
  C   C32       1.0  0.78631792666564  0.026407305094324537  0.40538803264898027  1.0000
  C   C33       1.0  0.7650618318504019  0.0282023234235107  0.5044305335428156  1.0000
  C   C34       1.0  0.7985274621490767  0.10711244559622538  0.2247136694031702  1.0000
  C   C35       1.0  0.8635539463780727  0.10282445173733448  0.21663682272685292  1.0000
  C   C36       1.0  0.8888787682442052  0.10793331044287927  0.12008884606152392  1.0000
  C   C37       1.0  0.8497158135038522  0.11760583261578539  0.030300174739904536  1.0000
  C   C38       1.0  0.7849731264068502  0.1209254553475636  0.03665648348866002  1.0000
  C   C39       1.0  0.758269297131224  0.11454755894531778  0.13323307478149093  1.0000
  H   H20       1.0  0.7057572242124586  0.03228542481871566  0.7812057067272224  1.0000
  H   H21       1.0  0.6972856194785922  0.2611965803157171  0.46934253743369325  1.0000
  H   H22       1.0  0.7349511237014134  0.25781025644319217  0.2960762855342467  1.0000
  H   H23       1.0  0.8112461037712486  0.9607462384461173  0.38797761316072976  1.0000
  H   H24       1.0  0.7741380121537419  0.9636146694009137  0.5616590236309085  1.0000
  H   H25       1.0  0.8949214172519717  0.09734530113332807  0.28547882024362004  1.0000
  H   H26       1.0  0.9390534105774595  0.10517329380075235  0.11488939283440303  1.0000
  H   H27       1.0  0.8695185280270583  0.12187218603284562  0.9554733457980262  1.0000
  H   H28       1.0  0.7555932406312033  0.12659795471547633  0.9656083110570377  1.0000
  H   H29       1.0  0.6058541843302774  0.15266242492836749  0.04891991438707244  1.0000
  Zn  Zn1       1.0  0.6769618009079552  0.11446800634203624  0.8316455757364495  1.0000
  Zn  Zn2       1.0  0.8138647724576102  0.11251680032788425  0.8306338575654342  1.0000
  C   C40       1.0  0.7532504386091338  0.1100421919761767  0.019133138683375187  1.0000
  C   C41       1.0  0.7375776842273323  0.11694389438044195  0.6431463515436351  1.0000
  C   C42       1.0  0.7525050005318604  0.30174769466678314  0.8222642290023705  1.0000
  C   C43       1.0  0.738323030123129  0.9252371540694605  0.8400153478354462  1.0000
  O   O2        1.0  0.7912143571672287  0.1177112556521045  0.6810553947843923  1.0000
  O   O3        1.0  0.8035199107432005  0.10779313180656194  0.9804559483548807  1.0000
  O   O4        1.0  0.8029173052151518  0.2625977633935527  0.8214828888910625  1.0000
  O   O5        1.0  0.7918169129824169  0.9629066318356105  0.8400283772731161  1.0000
  O   O6        1.0  0.6990096136646963  0.26407817550126383  0.8222510563685781  1.0000
  O   O7        1.0  0.6996122646557694  0.10927478220160336  0.9812240295613998  1.0000
  O   O8        1.0  0.687306657112085  0.11919286580584922  0.6818222400719554  1.0000
  O   O9        1.0  0.6879092159216816  0.9643882348858132  0.8407952998755841  1.0000
