data_image0
_chemical_formula_structural       NC5NC3BrH3C6BrH5C6NCOH5Zn2C4O8
_chemical_formula_sum              "N3 C25 Br2 H13 O9 Zn2"
_cell_length_a       13.839083392302014
_cell_length_b       9.276564384272257
_cell_length_c       9.27373355559583
_cell_angle_alpha    86.1252681461469
_cell_angle_beta     90.01178760078571
_cell_angle_gamma    90.61189963838827

_space_group_name_H-M_alt    "P 1"
_space_group_IT_number       1

loop_
  _space_group_symop_operation_xyz
  'x, y, z'

loop_
  _atom_site_type_symbol
  _atom_site_label
  _atom_site_symmetry_multiplicity
  _atom_site_fract_x
  _atom_site_fract_y
  _atom_site_fract_z
  _atom_site_occupancy
  N   N1        1.0  0.9203988710783206  0.5617727419798415  0.4089188369536143  1.0000
  C   C1        1.0  0.8479604151677754  0.49815251972681646  0.41143658489296975  1.0000
  C   C2        1.0  0.757708693240193  0.41898696491012233  0.41456937615679146  1.0000
  C   C3        1.0  0.6706740733846372  0.495161419372393  0.41155514493194323  1.0000
  C   C4        1.0  0.5821156099599252  0.4204591933596395  0.4145110599198123  1.0000
  C   C5        1.0  0.4928946727433051  0.49898425384815664  0.41140365407316604  1.0000
  N   N2        1.0  0.4211726445096016  0.5621122442854403  0.40890534636172426  1.0000
  C   C6        1.0  0.580523800059447  0.26927111495835265  0.42049357618868033  1.0000
  C   C7        1.0  0.6671125435051541  0.1929754324845947  0.4235125130643198  1.0000
  C   C8        1.0  0.7558621439249278  0.2669637736758418  0.4205848666972485  1.0000
  Br  Br1       1.0  0.872511049064529  0.1569103036627144  0.4249397742121295  1.0000
  H   H1        1.0  0.6718525008334884  0.6123193823970923  0.4069190017597102  1.0000
  H   H2        1.0  0.5124262341512297  0.21043823024581856  0.4228213272408412  1.0000
  H   H3        1.0  0.6651726257348761  0.0760665883167686  0.428138421137342  1.0000
  C   C9        1.0  0.16787917675915343  0.138463500970188  0.4092807288852165  1.0000
  C   C10       1.0  0.15546924994693168  0.22054026779862967  0.27755731050828936  1.0000
  C   C11       1.0  0.15205234672991397  0.15414818191620405  0.14706401591048168  1.0000
  C   C12       1.0  0.1610233946622075  0.004733711161011068  0.1458163400572421  1.0000
  C   C13       1.0  0.1717306270522887  0.9209410772908944  0.2755479186680341  1.0000
  C   C14       1.0  0.17370151328249195  0.9854104708956396  0.40855590570458933  1.0000
  Br  Br2       1.0  0.15705930831629167  0.9144509693626668  0.9667567205184762  1.0000
  H   H4        1.0  0.13959180203549493  0.40351212615156046  0.6435901871620677  1.0000
  H   H5        1.0  0.15070019465340367  0.3371669395852521  0.2750901050426844  1.0000
  H   H6        1.0  0.14334858855082544  0.21928479012236424  0.04667461521422301  1.0000
  H   H7        1.0  0.17620086574901395  0.8046707676369445  0.272440545474365  1.0000
  H   H8        1.0  0.22705218184904008  0.6899237151793158  0.6330208324878235  1.0000
  C   C15       1.0  0.17070381660766798  0.5573934564039384  0.9856952260823761  1.0000
  C   C16       1.0  0.08183558335824581  0.5490562104103833  0.059656163825172026  1.0000
  C   C17       1.0  0.9939264514870646  0.5524062082181844  0.9847061295788807  1.0000
  C   C18       1.0  0.9948920209857706  0.5687809997141458  0.8333443594187777  1.0000
  C   C19       1.0  0.08229250848413083  0.5749653742391174  0.7581813097624273  1.0000
  C   C20       1.0  0.1708768654060222  0.5664805243569557  0.8321414793701664  1.0000
  N   N3        1.0  0.9047939607086563  0.5472879192643558  0.06472734355560195  1.0000
  C   C21       1.0  0.8172811360098073  0.4808220779236114  0.0180040939591517  1.0000
  O   O1        1.0  0.8162483842054746  0.40450535368331536  0.9107185843383002  1.0000
  H   H9        1.0  0.3990952101334635  0.6576822262629507  0.08191684915484787  1.0000
  H   H10       1.0  0.9282237253183997  0.5783372649994494  0.7727233276230483  1.0000
  H   H11       1.0  0.3254223713162621  0.6279320465689475  0.5469785910470164  1.0000
  H   H12       1.0  0.9047114981965019  0.5856314751312206  0.1681135381460126  1.0000
  H   H13       1.0  0.7513195363164646  0.4928714255605544  0.0784163638636668  1.0000
  Zn  Zn1       1.0  0.06491134285686107  0.5618669380175245  0.4089232763250745  1.0000
  Zn  Zn2       1.0  0.276660086034175  0.5620063552991041  0.4089127446854164  1.0000
  C   C22       1.0  0.1708025077938886  0.5590179405717635  0.6721499104985871  1.0000
  C   C23       1.0  0.1707712459242674  0.5648571753391602  0.14568625029536286  1.0000
  C   C24       1.0  0.17259481641786964  0.8252578289097918  0.4029498192125689  1.0000
  C   C25       1.0  0.16897885315027916  0.2986155551898344  0.41488641990501907  1.0000
  O   O2        1.0  0.25115137706703083  0.5674086843842714  0.19937670823874987  1.0000
  O   O3        1.0  0.25113476562671133  0.5565711536617124  0.6184510453407375  1.0000
  O   O4        1.0  0.25258099455565497  0.771563245932517  0.4010700657626849  1.0000
  O   O5        1.0  0.2497050759314097  0.3524166012218259  0.4167575797502956  1.0000
  O   O6        1.0  0.09186628070018178  0.7714566920487151  0.4010784412562072  1.0000
  O   O7        1.0  0.09042006366180111  0.5564663315431206  0.6184593425066336  1.0000
  O   O8        1.0  0.09043667446666692  0.5673037934104896  0.19938327268748512  1.0000
  O   O9        1.0  0.08899037327827863  0.352311701093597  0.4167642522615498  1.0000
