data_image0
_chemical_formula_structural       NC9NC3OH6C7F3H5C6BrH5Zn2C4O8
_chemical_formula_sum              "N2 C29 O9 H16 F3 Br1 Zn2"
_cell_length_a       15.78231758774541
_cell_length_b       9.27228830945605
_cell_length_c       10.302972455390005
_cell_angle_alpha    85.26210740254696
_cell_angle_beta     90.08385913268748
_cell_angle_gamma    89.05832516092083

_space_group_name_H-M_alt    "P 1"
_space_group_IT_number       1

loop_
  _space_group_symop_operation_xyz
  'x, y, z'

loop_
  _atom_site_type_symbol
  _atom_site_label
  _atom_site_symmetry_multiplicity
  _atom_site_fract_x
  _atom_site_fract_y
  _atom_site_fract_z
  _atom_site_occupancy
  N   N1        1.0  0.7886178590828674  0.5707063070244767  0.562969966896282  1.0000
  C   C1        1.0  0.7406233416417041  0.4795011212636551  0.5874725703979973  1.0000
  C   C2        1.0  0.6810362072137386  0.36629331631026973  0.6178866074872953  1.0000
  C   C3        1.0  0.7015368976453198  0.2240860701426852  0.6560121559590242  1.0000
  C   C4        1.0  0.6252124954269838  0.15516687181855746  0.6745638155175231  1.0000
  C   C5        1.0  0.5628115505674754  0.260416509458393  0.6463878127251133  1.0000
  C   C6        1.0  0.46983525195895537  0.24095746005664775  0.6516888606817186  1.0000
  C   C7        1.0  0.4153869709736715  0.360271116468865  0.6195828530014531  1.0000
  C   C8        1.0  0.32727452239908744  0.3443151624791601  0.6239367435506367  1.0000
  C   C9        1.0  0.27210928464182627  0.4671003116180863  0.5908883512386112  1.0000
  N   N2        1.0  0.2277694216093366  0.5658037300871926  0.5643204205296  1.0000
  C   C10       1.0  0.29293011417403264  0.2088679704379317  0.6604464582828777  1.0000
  C   C11       1.0  0.3464460088908426  0.08980099165676882  0.692490443339679  1.0000
  C   C12       1.0  0.4343753785653459  0.10531860999611209  0.688254889676398  1.0000
  O   O1        1.0  0.5985348461254456  0.3851510111320237  0.6128981603056218  1.0000
  H   H1        1.0  0.7642799426647277  0.1761286851188788  0.6688186258865787  1.0000
  H   H2        1.0  0.6171482122317093  0.04184563139553422  0.7049602844982801  1.0000
  H   H3        1.0  0.4413712479867332  0.4656730486357517  0.591167101213921  1.0000
  H   H4        1.0  0.2248934679214784  0.19535410658296584  0.6641318554480262  1.0000
  H   H5        1.0  0.31972716939099616  0.9851196417993037  0.7207123537553175  1.0000
  H   H6        1.0  0.4740176276702684  0.01100917770601195  0.7136442296397565  1.0000
  C   C13       1.0  0.01069116877726395  0.14440252465181347  0.5656537349224526  1.0000
  C   C14       1.0  0.05095237681992404  0.22596275579688774  0.4632345012589585  1.0000
  C   C15       1.0  0.08284529547639785  0.15999048143659933  0.3562630788005414  1.0000
  C   C16       1.0  0.07416680957689165  0.010882673817654847  0.3479377876840932  1.0000
  C   C17       1.0  0.03699663539120457  0.9276054828644819  0.4520190710869157  1.0000
  C   C18       1.0  0.005704283633626288  0.9920963545356843  0.5616479615098939  1.0000
  C   C19       1.0  0.11079338059998584  0.9389325511083105  0.23401310214885293  1.0000
  F   F1        1.0  0.110059538140796  0.03354073421316461  0.12279516555793356  1.0000
  F   F2        1.0  0.06413175032070101  0.8191003765217686  0.2091216185629936  1.0000
  F   F3        1.0  0.19342452581760616  0.8954527589596134  0.26238176840428284  1.0000
  H   H7        1.0  0.8682283387591256  0.2285695409825366  0.7987379838412164  1.0000
  H   H8        1.0  0.05629736033057897  0.3421673547974897  0.4645943210839514  1.0000
  H   H9        1.0  0.11372058745896768  0.2261230957946292  0.27931806517768054  1.0000
  H   H10       1.0  0.03428902020689151  0.8111968969332041  0.4490914569272588  1.0000
  H   H11       1.0  0.9662406441704278  0.8628495212688796  0.8759426093767171  1.0000
  C   C20       1.0  0.008197689136845593  0.5682494201940078  0.1824082860601255  1.0000
  C   C21       1.0  0.03376242005694774  0.42193710795698824  0.1921254146421585  1.0000
  C   C22       1.0  0.046443953195159676  0.34935830093675846  0.08000779998834151  1.0000
  C   C23       1.0  0.03376256320900614  0.4219370500271966  0.9570430247462357  1.0000
  C   C24       1.0  0.008197729205638103  0.5682494236963763  0.9448933682392417  1.0000
  C   C25       1.0  0.9955387731699946  0.6406990028396059  0.05823693737625945  1.0000
  Br  Br1       1.0  0.08121621806379359  0.15034826889686692  0.09487916161000265  1.0000
  H   H12       1.0  0.9985757042367349  0.6233202512200138  0.5060523947099036  1.0000
  H   H13       1.0  0.04393914523099027  0.36369285527240414  0.2864770984387397  1.0000
  H   H14       1.0  0.043939479780552126  0.3636928998872382  0.871396196610557  1.0000
  H   H15       1.0  0.9758222286955106  0.7535406690704698  0.04980465836761017  1.0000
  H   H16       1.0  0.998574516506712  0.6233197225561047  0.6130187696221125  1.0000
  Zn  Zn1       1.0  0.9153475328685955  0.5692876738099746  0.5633671878459034  1.0000
  Zn  Zn2       1.0  0.10103978863371149  0.5672105830771947  0.5639338680491712  1.0000
  C   C26       1.0  0.008229666952191069  0.5624994441690081  0.8007945429901614  1.0000
  C   C27       1.0  0.008159671590076691  0.5740006111940832  0.32650663791133905  1.0000
  C   C28       1.0  0.006642531611731115  0.8318642096842319  0.5572316497605527  1.0000
  C   C29       1.0  0.009746753768404158  0.30463411227126347  0.570069608357872  1.0000
  O   O2        1.0  0.07861619291766714  0.5751362214324816  0.3750824430872619  1.0000
  O   O3        1.0  0.07870927752964674  0.559786281263903  0.7526484663997048  1.0000
  O   O4        1.0  0.07742669571114574  0.7773017466258092  0.555969696877892  1.0000
  O   O5        1.0  0.07989871131123105  0.3576207671044725  0.5717611150245099  1.0000
  O   O6        1.0  0.9364885468234125  0.7788774904930778  0.5555399406703481  1.0000
  O   O7        1.0  0.9377711184363829  0.5613637592491478  0.7522186327750202  1.0000
  O   O8        1.0  0.9376780341765486  0.5767136491196883  0.37465104881710243  1.0000
  O   O9        1.0  0.9389605526273866  0.3591981844681625  0.5713298181386992  1.0000
