data_image0
_chemical_formula_structural       NC5NC3F3CH3C9H8C7F3H5Zn2C4O8
_chemical_formula_sum              "N2 C29 F6 H16 Zn2 O8"
_cell_length_a       13.85151926108384
_cell_length_b       9.275152443626249
_cell_length_c       10.299327507215198
_cell_angle_alpha    85.35552067985554
_cell_angle_beta     89.98119703014584
_cell_angle_gamma    90.57354708821606

_space_group_name_H-M_alt    "P 1"
_space_group_IT_number       1

loop_
  _space_group_symop_operation_xyz
  'x, y, z'

loop_
  _atom_site_type_symbol
  _atom_site_label
  _atom_site_symmetry_multiplicity
  _atom_site_fract_x
  _atom_site_fract_y
  _atom_site_fract_z
  _atom_site_occupancy
  N   N1        1.0  0.9200167692845386  0.579014297607694  0.562537447007035  1.0000
  C   C1        1.0  0.8476125765804076  0.5699228121837949  0.6188428087329061  1.0000
  C   C2        1.0  0.757536061579419  0.5586117575015646  0.6888947334370608  1.0000
  C   C3        1.0  0.6700885123902972  0.5678465970167941  0.6208247010755543  1.0000
  C   C4        1.0  0.5824840719918207  0.5586117443544895  0.6888947154069018  1.0000
  C   C5        1.0  0.4925933245486579  0.5699228283256326  0.6188428934295491  1.0000
  N   N2        1.0  0.4203385833939219  0.5790142596921475  0.5625375421289138  1.0000
  C   C6        1.0  0.5823111870915146  0.5391437360812374  0.8251964657685729  1.0000
  C   C7        1.0  0.6697461417440393  0.5267178935856272  0.894413463393853  1.0000
  C   C8        1.0  0.6696057330389907  0.5111131709625931  0.04133008214757461  1.0000
  F   F1        1.0  0.7500270577959954  0.43626731331426916  0.08805143319782593  1.0000
  F   F2        1.0  0.5881582429081638  0.4362672826912244  0.08805152275088535  1.0000
  F   F3        1.0  0.6705050459986422  0.646963761136027  0.08750294078489018  1.0000
  C   C9        1.0  0.7573815132893562  0.5391436407945571  0.8251964837377213  1.0000
  H   H1        1.0  0.6702163559482168  0.5830796711536343  0.5152945538700617  1.0000
  H   H2        1.0  0.5141404910054409  0.5339560767336984  0.8771522175249838  1.0000
  H   H3        1.0  0.8254572439912252  0.5339559958144204  0.8771521808019234  1.0000
  C   C10       1.0  0.1673340476175722  0.15538179658052068  0.5638634004241225  1.0000
  C   C11       1.0  0.1325344229889731  0.23813814608663633  0.4535277978872125  1.0000
  C   C12       1.0  0.1067092368677847  0.1727140669790581  0.341126438580692  1.0000
  C   C13       1.0  0.1152782836460147  0.023372786874040336  0.3368351680809551  1.0000
  C   C14       1.0  0.14819028693703598  0.9389284338092637  0.4462382916721581  1.0000
  C   C15       1.0  0.17303046177860826  0.0026357207927774086  0.5612227769455249  1.0000
  C   C16       1.0  0.08915080496318863  0.9562411586942331  0.2204364914823269  1.0000
  C   C17       1.0  0.06727514912677869  0.900000776754214  0.12297084984955496  1.0000
  C   C18       1.0  0.040733365344920905  0.831751021263387  0.0047133872746258935  1.0000
  H   H4        1.0  0.30599230423072493  0.23699339852393636  0.8232399047096519  1.0000
  H   H5        1.0  0.1274490309008478  0.3546556948966762  0.45311927076663494  1.0000
  H   H6        1.0  0.08091802883097343  0.2389667529122541  0.2570124879135245  1.0000
  H   H7        1.0  0.15225587674189422  0.8226189603635754  0.4426152466039181  1.0000
  H   H8        1.0  0.2632894305643787  0.7073090680689086  0.7386275970717023  1.0000
  H   H9        1.0  0.05837916967309953  0.71502732805626  0.0168465542377636  1.0000
  H   H10       1.0  0.9621616928993062  0.8443363189150568  0.9869335233095925  1.0000
  H   H11       1.0  0.08152388709550129  0.8841124678614176  0.9206468672259698  1.0000
  C   C19       1.0  0.17027509514706218  0.5790673368316546  0.18116134089482783  1.0000
  C   C20       1.0  0.26448059048297434  0.6369106658520856  0.17571060105187009  1.0000
  C   C21       1.0  0.3113150600126763  0.6685389223150264  0.055657038032552286  1.0000
  C   C22       1.0  0.2642368034284206  0.636757688648862  0.9404736201458821  1.0000
  C   C23       1.0  0.17008943755414152  0.578950170020313  0.9439248823407921  1.0000
  C   C24       1.0  0.12351479284470335  0.5509750476600968  0.06473962655483922  1.0000
  C   C25       1.0  0.41373710796829344  0.7257450403853776  0.0512164221949638  1.0000
  F   F4        1.0  0.43116694290516505  0.8099880585403303  0.15384503117767112  1.0000
  F   F5        1.0  0.4767328089640841  0.6107260130042547  0.059443859896379125  1.0000
  F   F6        1.0  0.4309015951275905  0.80996848574436  0.9362016884859181  1.0000
  H   H12       1.0  0.9931369763533355  0.46749830360354294  0.39886113684871716  1.0000
  H   H13       1.0  0.30163994393008586  0.657200770047716  0.2650438980534726  1.0000
  H   H14       1.0  0.30122891388470635  0.6569389808519129  0.8480306933489156  1.0000
  H   H15       1.0  0.050905367639495734  0.5063955373266522  0.06813582566612753  1.0000
  H   H16       1.0  0.13450850411065218  0.5543581109729014  0.6179699943095782  1.0000
  Zn  Zn1       1.0  0.06439880975276903  0.5790104342964209  0.5625449722459361  1.0000
  Zn  Zn2       1.0  0.2759564437802484  0.5790063546831219  0.5625406427971258  1.0000
  C   C26       1.0  0.17008371104272313  0.573225268073535  0.7997641407032958  1.0000
  C   C27       1.0  0.1702738649000213  0.584793341054445  0.32532159609027483  1.0000
  C   C28       1.0  0.1719500026713426  0.8424874611107793  0.5565465913712795  1.0000
  C   C29       1.0  0.168407489411647  0.31552941479153307  0.5685392200665542  1.0000
  O   O1        1.0  0.2505584292750358  0.5867071985644092  0.3737014712657989  1.0000
  O   O2        1.0  0.25036648855811916  0.5713072259928651  0.751380609109505  1.0000
  O   O3        1.0  0.2518724600414924  0.7887398519690312  0.5549807125665582  1.0000
  O   O4        1.0  0.24905238569446242  0.369274582924368  0.5701012704001112  1.0000
  O   O5        1.0  0.09130279564432953  0.7887422060581379  0.5549843446375919  1.0000
  O   O6        1.0  0.0897968358264867  0.5713113133106038  0.7513841665309168  1.0000
  O   O7        1.0  0.08998877664974231  0.5867112358507847  0.37370346739059324  1.0000
  O   O8        1.0  0.08848273297214383  0.36927860987758243  0.5701033639281818  1.0000
