data_image0
_chemical_formula_structural       NC5NC3F3CH3C9H8C6SCH8Zn2C4O8
_chemical_formula_sum              "N2 C29 F3 H19 S1 Zn2 O8"
_cell_length_a       13.85151926108384
_cell_length_b       9.275152443626249
_cell_length_c       10.302812801239593
_cell_angle_alpha    85.3632325581603
_cell_angle_beta     89.99987069690108
_cell_angle_gamma    90.57354708821606

_space_group_name_H-M_alt    "P 1"
_space_group_IT_number       1

loop_
  _space_group_symop_operation_xyz
  'x, y, z'

loop_
  _atom_site_type_symbol
  _atom_site_label
  _atom_site_symmetry_multiplicity
  _atom_site_fract_x
  _atom_site_fract_y
  _atom_site_fract_z
  _atom_site_occupancy
  N   N1        1.0  0.9196669398076345  0.578793477732231  0.5630398812674143  1.0000
  C   C1        1.0  0.8472764499128036  0.5697106418157143  0.6193255626595503  1.0000
  C   C2        1.0  0.7572169831668286  0.5584103483580161  0.6893530022131851  1.0000
  C   C3        1.0  0.6697528680478572  0.5676347311027106  0.6213067622741615  1.0000
  C   C4        1.0  0.5821649935748421  0.5584103352081711  0.6893529841893287  1.0000
  C   C5        1.0  0.49225719790166583  0.5697106579705629  0.61932564732659  1.0000
  N   N2        1.0  0.4199887539401673  0.5787934398312966  0.5630399763560451  1.0000
  C   C6        1.0  0.5820252798830176  0.5389632653137849  0.8256070931922809  1.0000
  C   C7        1.0  0.6694770795977124  0.5265480557830227  0.8947998974979262  1.0000
  C   C8        1.0  0.66937242539895  0.5109659021718831  0.041665164692939904  1.0000
  F   F1        1.0  0.7498051205431441  0.43612722175603663  0.08837018529520158  1.0000
  F   F2        1.0  0.5879363056771066  0.4361271911467486  0.08837027481695958  1.0000
  F   F3        1.0  0.6702829752613999  0.6468235853195805  0.08782188459604567  1.0000
  C   C9        1.0  0.7570956060852325  0.5389631700298652  0.8256071111551491  1.0000
  H   H1        1.0  0.6698550291585242  0.5828515939275312  0.5158135008723017  1.0000
  H   H2        1.0  0.5138672280591695  0.533783587295992  0.8775446849280009  1.0000
  H   H3        1.0  0.8251839810360164  0.5337835063710725  0.8775446482177754  1.0000
  C   C10       1.0  0.16698454083261566  0.1551611803951421  0.5643653712258727  1.0000
  C   C11       1.0  0.1321580642724385  0.237900580385626  0.45406833413662556  1.0000
  C   C12       1.0  0.10630552348475919  0.17245923442534797  0.34170626231881934  1.0000
  C   C13       1.0  0.11487352591375677  0.023117295104676083  0.3374164917408127  1.0000
  C   C14       1.0  0.14781215420270777  0.9386897483101402  0.4467813758124053  1.0000
  C   C15       1.0  0.17268031235574235  0.002414698960554459  0.5617256707206781  1.0000
  C   C16       1.0  0.08871771975341702  0.9559677860129681  0.22105849980757883  1.0000
  C   C17       1.0  0.06681834409602284  0.8997124316127603  0.12362692520317187  1.0000
  C   C18       1.0  0.040247780471388106  0.8314445096673679  0.0054107969924808135  1.0000
  H   H4        1.0  0.30570592086183623  0.23681262719382354  0.8236512160073903  1.0000
  H   H5        1.0  0.12707257276271178  0.35441806643861695  0.4536599498079565  1.0000
  H   H6        1.0  0.08049384497426496  0.23869899895612412  0.25762171188228966  1.0000
  H   H7        1.0  0.1518768622816673  0.8223797183001372  0.4431595971020019  1.0000
  H   H8        1.0  0.2629824554386764  0.7071152987798602  0.7390684827900877  1.0000
  H   H9        1.0  0.0578965375995848  0.7147226803309986  0.017539723066868792  1.0000
  H   H10       1.0  0.9616717810118299  0.8440270760149503  0.9876371475982423  1.0000
  H   H11       1.0  0.08101784329128338  0.883793042149167  0.9213736605961054  1.0000
  C   C19       1.0  0.1698324517019428  0.5787879307870554  0.1817970770081163  1.0000
  C   C20       1.0  0.13824164435853636  0.7226506295253632  0.17015158089487437  1.0000
  C   C21       1.0  0.12227273521304727  0.7940193913320045  0.04738222735148944  1.0000
  C   C22       1.0  0.13824155630661422  0.7226504780903482  0.9350004116774232  1.0000
  C   C23       1.0  0.16983238901680012  0.5787879210652304  0.9442939806679373  1.0000
  C   C24       1.0  0.18544359244222974  0.5075469943515301  0.06823008772974859  1.0000
  S   S1        1.0  0.08210979922563726  0.9779320749390427  0.03399790583286145  1.0000
  C   C25       1.0  0.9547827192434565  0.9275294570907182  0.037667062418896835  1.0000
  H   H12       1.0  0.18170150171796662  0.5245545590699909  0.5135001230990504  1.0000
  H   H13       1.0  0.12569246018207128  0.7797933039490306  0.25609259927953576  1.0000
  H   H14       1.0  0.12569226550121337  0.779793096140352  0.8407422869448616  1.0000
  H   H15       1.0  0.20979341168488586  0.396569754662945  0.07630638595034345  1.0000
  H   H16       1.0  0.18169969911404604  0.5245538101109577  0.6204845399182548  1.0000
  H   H17       1.0  0.9372322472511411  0.863353093798998  0.9542206839616346  1.0000
  H   H18       1.0  0.9372326705306456  0.8633545517271107  0.1304553714529031  1.0000
  H   H19       1.0  0.9107708874722122  0.027102379193968407  0.03042032801836591  1.0000
  Zn  Zn1       1.0  0.06404898210725209  0.5787896155769685  0.5630474038760295  1.0000
  Zn  Zn2       1.0  0.2756066150810914  0.5787855352985889  0.5630430759404852  1.0000
  C   C26       1.0  0.1697916144716199  0.573040890447541  0.8001836574517432  1.0000
  C   C27       1.0  0.1698663051560807  0.5845360805951569  0.3259069440727249  1.0000
  C   C28       1.0  0.1715987152240109  0.8422657209330845  0.5570511196069867  1.0000
  C   C29       1.0  0.16805912056210057  0.3153095168954123  0.5690395565356545  1.0000
  O   O1        1.0  0.25016264354662665  0.5864573701164733  0.37426990909865876  1.0000
  O   O2        1.0  0.2500626170816361  0.5711154157938287  0.7518170372855653  1.0000
  O   O3        1.0  0.25152079151253703  0.788517871244435  0.5554857881216775  1.0000
  O   O4        1.0  0.24870439699481972  0.3690549249870272  0.570601060887959  1.0000
  O   O5        1.0  0.09095112799929739  0.7885202258914934  0.5554894189231981  1.0000
  O   O6        1.0  0.08949296521575878  0.5711195036580505  0.7518205934635567  1.0000
  O   O7        1.0  0.08959299140712186  0.5864614077094885  0.37427190452575054  1.0000
  O   O8        1.0  0.08813474478199405  0.3690589522618448  0.5706031536842817  1.0000
