data_image0
_chemical_formula_structural       NC5NC3BrH3C9H8C6SCH8Zn2C4O8
_chemical_formula_sum              "N2 C28 Br1 H19 S1 Zn2 O8"
_cell_length_a       13.839083392302014
_cell_length_b       9.275152443626249
_cell_length_c       10.302812801239593
_cell_angle_alpha    85.3632325581603
_cell_angle_beta     90.00087154347639
_cell_angle_gamma    90.59950914120974

_space_group_name_H-M_alt    "P 1"
_space_group_IT_number       1

loop_
  _space_group_symop_operation_xyz
  'x, y, z'

loop_
  _atom_site_type_symbol
  _atom_site_label
  _atom_site_symmetry_multiplicity
  _atom_site_fract_x
  _atom_site_fract_y
  _atom_site_fract_z
  _atom_site_occupancy
  N   N1        1.0  0.9204976415654058  0.5794179873903569  0.5630160306752787  1.0000
  C   C1        1.0  0.8480678066654259  0.5157479977940911  0.5654333859849408  1.0000
  C   C2        1.0  0.7578268122879416  0.4365205168881973  0.5684412697454321  1.0000
  C   C3        1.0  0.6707818701602849  0.5127545556092972  0.5655472074014272  1.0000
  C   C4        1.0  0.5822335295206533  0.43799389757079576  0.5683852819692776  1.0000
  C   C5        1.0  0.49300195153792353  0.5165803827086026  0.565401769151046  1.0000
  N   N2        1.0  0.4212713690027587  0.579757755863574  0.5630030812618527  1.0000
  C   C6        1.0  0.5806622068646217  0.2866875587914472  0.574129292931935  1.0000
  C   C7        1.0  0.6672612890283759  0.21033219821444793  0.5770278787417897  1.0000
  C   C8        1.0  0.7560008633963151  0.28437841280899967  0.574216944611704  1.0000
  Br  Br1       1.0  0.8726646816801366  0.17423885724419153  0.5783982295243499  1.0000
  H   H1        1.0  0.6719444217693773  0.6300041625587167  0.561095905430745  1.0000
  H   H2        1.0  0.5125726133568737  0.22780865745832157  0.5763642592786584  1.0000
  H   H3        1.0  0.6653372134167896  0.09333190903812327  0.5814693760347038  1.0000
  C   C9        1.0  0.16803863560040622  0.15595363371175885  0.5643351067125943  1.0000
  C   C10       1.0  0.1331807015483446  0.23866938441136565  0.45403897281128547  1.0000
  C   C11       1.0  0.10730480909916129  0.17321048300714303  0.3416775714518592  1.0000
  C   C12       1.0  0.11588055069368752  0.023874361880032335  0.33738757867174596  1.0000
  C   C13       1.0  0.14884893124971876  0.9394691824128426  0.4467516085147534  1.0000
  C   C14       1.0  0.17373955190716228  0.0032110200516586255  0.5616952584935726  1.0000
  C   C15       1.0  0.08970111894324218  0.9567070914087897  0.2210302650617593  1.0000
  C   C16       1.0  0.06778196237488432  0.9004368660036424  0.1235992583945631  1.0000
  C   C17       1.0  0.04118739852478481  0.8321509010332294  0.00538381926341636  1.0000
  H   H4        1.0  0.3068853176158606  0.23769928074518523  0.8236173539014262  1.0000
  H   H5        1.0  0.12809061649876877  0.35518341710702983  0.45363072036947566  1.0000
  H   H6        1.0  0.08146981583657409  0.23943271984194103  0.2575936904139886  1.0000
  H   H7        1.0  0.15291731083191504  0.8231619125862741  0.4431297243904331  1.0000
  H   H8        1.0  0.26412326163748  0.7079729405057116  0.7390357286721407  1.0000
  H   H9        1.0  0.058852097134548524  0.7154410562738884  0.01751228763590174  1.0000
  H   H10       1.0  0.9625404242176546  0.8446801095091352  0.9876122076548519  1.0000
  H   H11       1.0  0.08199428746224835  0.8845271188616376  0.9213456255384607  1.0000
  C   C18       1.0  0.17088911888422698  0.579582318007966  0.18176673863727258  1.0000
  C   C19       1.0  0.13926977671146745  0.7234235646711362  0.17012206179830125  1.0000
  C   C20       1.0  0.12328644343010575  0.7947814826194639  0.04735312239173295  1.0000
  C   C21       1.0  0.13926968858001088  0.7234234131763286  0.9349708925831345  1.0000
  C   C22       1.0  0.1708890561424632  0.5795823082435736  0.9442636422987198  1.0000
  C   C23       1.0  0.18651436060117477  0.5083519824842975  0.06819934450043474  1.0000
  S   S1        1.0  0.08308722972075366  0.9786668931558534  0.033969842456490706  1.0000
  C   C24       1.0  0.9556451398098968  0.9281778124939293  0.0376423011360576  1.0000
  H   H12       1.0  0.18276888978221906  0.5253570060960839  0.5134694769169128  1.0000
  H   H13       1.0  0.12670925731253946  0.7805577174372549  0.2560634056328186  1.0000
  H   H14       1.0  0.12670906245583358  0.7805575094963764  0.8407130933031933  1.0000
  H   H15       1.0  0.2108861741515209  0.39739127780054107  0.07627501123414926  1.0000
  H   H16       1.0  0.18276708555007182  0.5253562559129732  0.6204538937828659  1.0000
  H   H17       1.0  0.9380788151134088  0.8639895313667524  0.9541963778317766  1.0000
  H   H18       1.0  0.9380792387752467  0.8639909895822977  0.13043106531206705  1.0000
  H   H19       1.0  0.9115935537488844  0.027720847892740427  0.03039670813596551  1.0000
  Zn  Zn1       1.0  0.06501009892197196  0.5795121694030134  0.5630198088879028  1.0000
  Zn  Zn2       1.0  0.27675882422497344  0.5796517495948799  0.5630099944282718  1.0000
  C   C25       1.0  0.17084824476711669  0.5738352499374939  0.8001533201399703  1.0000
  C   C26       1.0  0.17092300291696128  0.5853304908046171  0.32587660482392744  1.0000
  C   C27       1.0  0.17265697780800981  0.8430613075541046  0.5570207354299617  1.0000
  C   C28       1.0  0.1691141859587475  0.3161026999168719  0.5690092641542839  1.0000
  O   O1        1.0  0.25129187007477793  0.5873063064121351  0.374237487449012  1.0000
  O   O2        1.0  0.2511917532595127  0.5719642841654509  0.7517846182299994  1.0000
  O   O3        1.0  0.2526512448064375  0.7893677298049793  0.5554533312498957  1.0000
  O   O4        1.0  0.24983230634180267  0.36990287104479314  0.5705686770563989  1.0000
  O   O5        1.0  0.09193654454570588  0.7892610479070388  0.555461126256291  1.0000
  O   O6        1.0  0.09047706465666461  0.5718593354925836  0.7517923386125631  1.0000
  O   O7        1.0  0.09057718119805493  0.5872013074678752  0.37424364708068314  1.0000
  O   O8        1.0  0.089117617391693  0.36979786178228596  0.570574934057303  1.0000
