data_image0
_chemical_formula_structural       NC5NC3OH4C9H8C7OH5Zn2C4O8
_chemical_formula_sum              "N2 C28 O10 H17 Zn2"
_cell_length_a       13.84702359539666
_cell_length_b       9.275152443626249
_cell_length_c       9.274074313596557
_cell_angle_alpha    85.92156872667384
_cell_angle_beta     90.21930263959183
_cell_angle_gamma    90.5743638874884

_space_group_name_H-M_alt    "P 1"
_space_group_IT_number       1

loop_
  _space_group_symop_operation_xyz
  'x, y, z'

loop_
  _atom_site_type_symbol
  _atom_site_label
  _atom_site_symmetry_multiplicity
  _atom_site_fract_x
  _atom_site_fract_y
  _atom_site_fract_z
  _atom_site_occupancy
  N   N1        1.0  0.9155014168509193  0.5631777376235743  0.4044751556768287  1.0000
  C   C1        1.0  0.8434755159162902  0.5551246201538027  0.4675544739793622  1.0000
  C   C2        1.0  0.7537762484777564  0.5450967876809796  0.5461015162880016  1.0000
  C   C3        1.0  0.6660499309005184  0.5547843035215108  0.47021943539155653  1.0000
  C   C4        1.0  0.5783290504977365  0.5452093409061527  0.5452194739608853  1.0000
  C   C5        1.0  0.48833162633175975  0.5551833986607837  0.46709375740805803  1.0000
  N   N2        1.0  0.4159853386046887  0.5632017775918325  0.40428690959387903  1.0000
  C   C6        1.0  0.5783295569133705  0.5259179578841509  0.6963270388882432  1.0000
  C   C7        1.0  0.6656757709142697  0.5162213854706508  0.7722771729832261  1.0000
  C   C8        1.0  0.7537129902493349  0.52573465625287  0.6977619636850391  1.0000
  O   O1        1.0  0.840779820489472  0.5160215479114982  0.7738435403935062  1.0000
  H   H1        1.0  0.6660541195963272  0.5697297251881044  0.35315429600360626  1.0000
  H   H2        1.0  0.5108854310803767  0.5183819493783839  0.7553555208874614  1.0000
  H   H3        1.0  0.6648927953830541  0.5013056145503016  0.8891108312210616  1.0000
  H   H4        1.0  0.8425167710731648  0.5020617655389559  0.8831881348200765  1.0000
  C   C9        1.0  0.16290326415913992  0.13957176865067633  0.4058534906491862  1.0000
  C   C10       1.0  0.12772289922518998  0.22110748298283192  0.2834251522472022  1.0000
  C   C11       1.0  0.10151296313685342  0.154440377889711  0.15870102740831626  1.0000
  C   C12       1.0  0.11007041664107423  0.005052100515796853  0.15393570024211378  1.0000
  C   C13       1.0  0.1433594261997486  0.921817990108439  0.27532996025863765  1.0000
  C   C14       1.0  0.16859268162692276  0.9867967935482285  0.4029209980752282  1.0000
  C   C15       1.0  0.08354470479004858  0.9366332703566799  0.024775793009755406  1.0000
  C   C16       1.0  0.061335591765375064  0.8793150586745787  0.9166246207833  1.0000
  C   C17       1.0  0.03438921632547042  0.8097575458452096  0.7854021406800181  1.0000
  H   H5        1.0  0.30247498303529974  0.22405556662670525  0.6936361501769841  1.0000
  H   H6        1.0  0.12263449153029195  0.33762027413113294  0.2829737165602968  1.0000
  H   H7        1.0  0.07543173825309357  0.21976255244565346  0.06536794507543586  1.0000
  H   H8        1.0  0.14741420123796156  0.8054686854150263  0.2713078703644769  1.0000
  H   H9        1.0  0.259474944490762  0.6934344064781994  0.599756398195554  1.0000
  H   H10       1.0  0.052081366410551944  0.6931687450119592  0.7988598956468924  1.0000
  H   H11       1.0  0.9557325502905958  0.8221426402803366  0.7657010775205744  1.0000
  H   H12       1.0  0.0749114520334484  0.8611922042191454  0.6920966290284309  1.0000
  C   C18       1.0  0.1645637633992023  0.5590294432963534  0.9811609009646117  1.0000
  C   C19       1.0  0.0806471541063776  0.6016139039650639  0.05093402124557601  1.0000
  C   C20       1.0  0.0015639350101781524  0.6557918580298059  0.9715941406593641  1.0000
  C   C21       1.0  0.004548589169690362  0.6688264236118815  0.8202679336811918  1.0000
  C   C22       1.0  0.08714958186693433  0.6245003008877503  0.7493614461108145  1.0000
  C   C23       1.0  0.16693214162208903  0.5673390404902232  0.8276136757259116  1.0000
  C   C24       1.0  0.921868567546637  0.7269712193386881  0.7347072099007725  1.0000
  O   O2        1.0  0.84646155871545  0.7671607954368871  0.7953028378633564  1.0000
  H   H13       1.0  0.4002793766780589  0.5222878990474058  0.08798791310890652  1.0000
  H   H14       1.0  0.9384215306946  0.6888121887577123  0.028905328887461224  1.0000
  H   H15       1.0  0.08831556724545475  0.6314911880497207  0.6321801651243137  1.0000
  H   H16       1.0  0.3253417364118441  0.5373641561756315  0.5501919586220656  1.0000
  H   H17       1.0  0.9253566220281396  0.7357275418238134  0.6178060952086968  1.0000
  Zn  Zn1       1.0  0.05993026121382328  0.5631808947856611  0.4044291555744195  1.0000
  Zn  Zn2       1.0  0.27155642382726164  0.5631869323622989  0.4043447126101527  1.0000
  C   C25       1.0  0.1664437464582811  0.560021550976332  0.6676358262922975  1.0000
  C   C26       1.0  0.16504526215266258  0.5663480977767272  0.1411381761267989  1.0000
  C   C27       1.0  0.16749621396668268  0.8265968204975223  0.397732156051356  1.0000
  C   C28       1.0  0.16399271100728652  0.29977109585049283  0.41104192923341376  1.0000
  O   O3        1.0  0.24551784108323335  0.5688003028977002  0.194795987199875  1.0000
  O   O4        1.0  0.24659051978634827  0.557572835904538  0.6139135138521528  1.0000
  O   O5        1.0  0.24743932217173617  0.7728357520281395  0.39596438575963755  1.0000
  O   O6        1.0  0.24466896625110768  0.3535373960306105  0.4127450072233856  1.0000
  O   O7        1.0  0.08681764657234359  0.7728304311167857  0.3960288609824165  1.0000
  O   O8        1.0  0.0859688556062963  0.5575692473976639  0.6139779062304884  1.0000
  O   O9        1.0  0.08489617178145803  0.5687966471106118  0.19485864697872812  1.0000
  O   O10       1.0  0.08404729717843629  0.35353373098644636  0.41280777509247385  1.0000
