data_image0
_chemical_formula_structural       NC9NC3SH6C8NH7C7ONH7Zn2C4O8
_chemical_formula_sum              "N4 C31 S1 H20 O9 Zn2"
_cell_length_a       16.77567553997237
_cell_length_b       9.274263428431858
_cell_length_c       10.297855452804892
_cell_angle_alpha    85.50121379664337
_cell_angle_beta     90.3897855956152
_cell_angle_gamma    91.51050711931723

_space_group_name_H-M_alt    "P 1"
_space_group_IT_number       1

loop_
  _space_group_symop_operation_xyz
  'x, y, z'

loop_
  _atom_site_type_symbol
  _atom_site_label
  _atom_site_symmetry_multiplicity
  _atom_site_fract_x
  _atom_site_fract_y
  _atom_site_fract_z
  _atom_site_occupancy
  N   N1        1.0  0.760346906816006  0.6000146344493592  0.5733441673542612  1.0000
  C   C1        1.0  0.7059225571807518  0.6547997633835176  0.6149274815528667  1.0000
  C   C2        1.0  0.6383811184903325  0.7227844863529325  0.6665291926572388  1.0000
  C   C3        1.0  0.6410942855051012  0.820613622801022  0.7615585303363879  1.0000
  C   C4        1.0  0.5657435038736435  0.8688980241448243  0.7930548562792248  1.0000
  C   C5        1.0  0.5033858403856368  0.808880318521712  0.7224531397529259  1.0000
  C   C6        1.0  0.4170674197399667  0.8378320913205162  0.7332932774200132  1.0000
  C   C7        1.0  0.3597263221807807  0.7494359750244324  0.6750347067185886  1.0000
  C   C8        1.0  0.2782443280394199  0.7761546680991284  0.6848190299803606  1.0000
  C   C9        1.0  0.2202181418401983  0.684794462041078  0.6251661891991864  1.0000
  N   N2        1.0  0.17358218918990428  0.6113539485039432  0.5772141191128799  1.0000
  C   C10       1.0  0.2532756956521086  0.8916178332685859  0.7527006107250567  1.0000
  C   C11       1.0  0.3095262256756257  0.9801905009174046  0.8104974025248586  1.0000
  C   C12       1.0  0.3908529562208198  0.9538752502931415  0.8010075524435571  1.0000
  S   S1        1.0  0.5432997064094407  0.6955023848790345  0.621373497278642  1.0000
  H   H1        1.0  0.6957056997602081  0.8559941991523203  0.8073205785938938  1.0000
  H   H2        1.0  0.5579242714857406  0.944306312065527  0.8665196286331558  1.0000
  H   H3        1.0  0.37798744339662244  0.6591381828636169  0.622616224369553  1.0000
  H   H4        1.0  0.1904201296445529  0.9132321331849913  0.7607804695042922  1.0000
  H   H5        1.0  0.2900804158339566  0.06980904437060255  0.8625986504364673  1.0000
  H   H6        1.0  0.4327193800135659  0.025670725212218585  0.8457432364440928  1.0000
  C   C13       1.0  0.9644450918393738  0.18203161629499998  0.5755316007607627  1.0000
  C   C14       1.0  0.9541501956396145  0.2651545357882139  0.4567240026500179  1.0000
  C   C15       1.0  0.951675938439927  0.2002205920175757  0.3390642451073158  1.0000
  C   C16       1.0  0.9600835513975674  0.05067017659937779  0.33730786751737685  1.0000
  C   C17       1.0  0.9682385971065866  0.9659842422914409  0.4552991867019376  1.0000
  C   C18       1.0  0.9694915724027312  0.029326141175476383  0.5750380467311496  1.0000
  C   C19       1.0  0.9562262919962911  0.9806252919079068  0.21053516450746154  1.0000
  C   C20       1.0  0.8734974316013157  0.9394299442239437  0.1808916043182147  1.0000
  N   N3        1.0  0.8082013053386676  0.9069139854049854  0.15750316398149253  1.0000
  H   H7        1.0  0.03322711464118001  0.2620704972524206  0.8756466189840805  1.0000
  H   H8        1.0  0.9497425372800764  0.3816533064730432  0.4545552990938633  1.0000
  H   H9        1.0  0.9439462732287269  0.26697101591691563  0.24897439594210025  1.0000
  H   H10       1.0  0.9716816835245646  0.8495898170882897  0.453620450201337  1.0000
  H   H11       1.0  0.012696876680539097  0.7329385062233211  0.7788275928087024  1.0000
  H   H12       1.0  0.9930653965483741  0.8825189546122099  0.21590692350664975  1.0000
  H   H13       1.0  0.9797818556445819  0.05611576611373059  0.12992125789916265  1.0000
  C   C21       1.0  0.9670004626913812  0.6058231274933286  0.19384301291527417  1.0000
  C   C22       1.0  0.8856467993163346  0.6383651654783793  0.18966980786833054  1.0000
  C   C23       1.0  0.8442009941970765  0.6536232207510388  0.07055443890575819  1.0000
  C   C24       1.0  0.8855479141419651  0.6380379694355314  0.9544361763898566  1.0000
  C   C25       1.0  0.9669361867533544  0.6055345415615074  0.9567265993779559  1.0000
  C   C26       1.0  0.007079512399627008  0.589305733475518  0.07688507031345093  1.0000
  C   C27       1.0  0.7583372261335865  0.688338336303922  0.0687226879049867  1.0000
  O   O1        1.0  0.7291976600619786  0.7490877419044126  0.16222002355761944  1.0000
  N   N4        1.0  0.7071352061461902  0.6528248088207234  0.9636409156450729  1.0000
  H   H14       1.0  0.12082468014564318  0.5448374821005548  0.4089625443408358  1.0000
  H   H15       1.0  0.8541984254455977  0.6506531482098274  0.2795245998763529  1.0000
  H   H16       1.0  0.8550178294751641  0.6538327682338274  0.8617484256907648  1.0000
  H   H17       1.0  0.06977906190830918  0.5642216161123212  0.0793479962782575  1.0000
  H   H18       1.0  0.12107415546716971  0.5463827795257503  0.7536225473713962  1.0000
  H   H19       1.0  0.6477969555140191  0.6842369690669887  0.9619777142818504  1.0000
  H   H20       1.0  0.7256943126832299  0.5875282480309431  0.892169078934132  1.0000
  Zn  Zn1       1.0  0.8795976622358526  0.6032830609170797  0.5744684630893141  1.0000
  Zn  Zn2       1.0  0.05433135781041698  0.6080737490125123  0.5761004973867172  1.0000
  C   C28       1.0  0.9669123329528257  0.5998417725847285  0.8125286106057397  1.0000
  C   C29       1.0  0.967018606010908  0.611516909910584  0.3380404941224926  1.0000
  C   C30       1.0  0.9685340075236103  0.8691712491889464  0.5699551245502472  1.0000
  C   C31       1.0  0.9653968614863828  0.34218569834598855  0.5806140498826442  1.0000
  O   O2        1.0  0.033335184426388276  0.6152395425440629  0.38705383825272643  1.0000
  O   O3        1.0  0.03321457996525102  0.5997540731599451  0.7647535694610412  1.0000
  O   O4        1.0  0.03452320867863401  0.8172410066350575  0.5688737540005012  1.0000
  O   O5        1.0  0.03202649615790288  0.3977526177913155  0.5829335557570736  1.0000
  O   O6        1.0  0.9019024642603413  0.8136041905050233  0.5676354041551916  1.0000
  O   O7        1.0  0.9005938458726741  0.5961189903570348  0.7635151493473057  1.0000
  O   O8        1.0  0.900714450218974  0.611604410059609  0.3858138564696738  1.0000
  O   O9        1.0  0.8994057618775664  0.39411747495124305  0.5816936713664473  1.0000
