data_image0
_chemical_formula_structural       NC7OC8NH10C12H8C6H6Zn2C4O8
_chemical_formula_sum              "N2 C37 O9 H24 Zn2"
_cell_length_a       17.484556032080143
_cell_length_b       13.024581838241813
_cell_length_c       10.681121600428288
_cell_angle_alpha    84.14087780974744
_cell_angle_beta     90.65367848409316
_cell_angle_gamma    93.80452094823985

_space_group_name_H-M_alt    "P 1"
_space_group_IT_number       1

loop_
  _space_group_symop_operation_xyz
  'x, y, z'

loop_
  _atom_site_type_symbol
  _atom_site_label
  _atom_site_symmetry_multiplicity
  _atom_site_fract_x
  _atom_site_fract_y
  _atom_site_fract_z
  _atom_site_occupancy
  N   N1        1.0  0.7749967572984808  0.12895659497131384  0.5987058177681481  1.0000
  C   C1        1.0  0.725427476692349  0.06585552904620105  0.6161513687741588  1.0000
  C   C2        1.0  0.6637684596708437  0.9873671792774885  0.6378516793919823  1.0000
  C   C3        1.0  0.6554993797068853  0.9063196561743314  0.5611932981239376  1.0000
  C   C4        1.0  0.5955786449828268  0.8301379346273375  0.5823032662396841  1.0000
  C   C5        1.0  0.5432724734133946  0.8340472895011339  0.6797579427504536  1.0000
  C   C6        1.0  0.5520160111741105  0.9155727745833501  0.756965628001405  1.0000
  C   C7        1.0  0.6119446975726566  0.9917745191744488  0.7357937526688103  1.0000
  O   O1        1.0  0.4840228115273842  0.7557295900411722  0.6964185811973282  1.0000
  C   C8        1.0  0.4228241499241396  0.7524192585305971  0.7844593109343625  1.0000
  C   C9        1.0  0.36849941000741515  0.8350696754966349  0.7457691584847597  1.0000
  C   C10       1.0  0.3468698991241324  0.9022784511828857  0.8319390875403059  1.0000
  C   C11       1.0  0.2959869425963924  0.9784024502572195  0.7956864961501453  1.0000
  C   C12       1.0  0.26585166264558446  0.9875812147784714  0.6733220356277796  1.0000
  C   C13       1.0  0.2866248297372316  0.9201135078210878  0.5874093024781477  1.0000
  C   C14       1.0  0.33751237471623813  0.843984987302276  0.6235645805334915  1.0000
  C   C15       1.0  0.21348557126200876  0.06597459915393333  0.6360613142146463  1.0000
  N   N2        1.0  0.17138689960538578  0.12900080953757853  0.6061045119053574  1.0000
  H   H1        1.0  0.6952900698633249  0.90201938504095  0.48517064778800784  1.0000
  H   H2        1.0  0.5895948774450249  0.7678215641624448  0.5224088097978494  1.0000
  H   H3        1.0  0.5131872123742902  0.9207672119123126  0.8336617873090242  1.0000
  H   H4        1.0  0.6179018206402299  0.054038173374599575  0.7958851021813298  1.0000
  H   H5        1.0  0.3905743303895298  0.675952767182209  0.786150299537536  1.0000
  H   H6        1.0  0.4463491154154802  0.7586884940885905  0.8807028812131912  1.0000
  H   H7        1.0  0.3695181996273577  0.8960632000596375  0.9270032782906521  1.0000
  H   H8        1.0  0.2801071541385549  0.029972764436131172  0.8630458337670885  1.0000
  H   H9        1.0  0.26345401192154133  0.9262801729815863  0.492627755086633  1.0000
  H   H10       1.0  0.3529291508791739  0.7921270584641614  0.55628054566899  1.0000
  C   C16       1.0  0.958496349020676  0.8260711637086229  0.6113772111574821  1.0000
  C   C17       1.0  0.9245186181528963  0.7635645154331073  0.5233961370787685  1.0000
  C   C18       1.0  0.949808587722934  0.6652750765247692  0.5126969478443676  1.0000
  C   C19       1.0  0.009076214892116408  0.6274516855832575  0.5903310936617738  1.0000
  C   C20       1.0  0.043620503069431216  0.689996931679968  0.6772793363928036  1.0000
  C   C21       1.0  0.018386102019302374  0.7883176981264828  0.688060938775072  1.0000
  C   C22       1.0  0.036742409266117715  0.5240206821180702  0.5776380520734289  1.0000
  C   C23       1.0  0.11362467200938561  0.5183619856023657  0.5432791078708008  1.0000
  C   C24       1.0  0.14179419076110292  0.4239404226693703  0.5221477461693332  1.0000
  C   C25       1.0  0.09363698816815978  0.3339343620222602  0.5347348476588611  1.0000
  C   C26       1.0  0.017338590190803416  0.3377169846608911  0.5700295125414157  1.0000
  C   C27       1.0  0.9878942569049652  0.43187832002704324  0.5934443876298314  1.0000
  H   H11       1.0  0.8784967575573233  0.7906443325480543  0.4626021360596535  1.0000
  H   H12       1.0  0.9232654982611552  0.6186211038347985  0.44373225511926007  1.0000
  H   H13       1.0  0.08983330702046022  0.6623263950500177  0.7372981105329809  1.0000
  H   H14       1.0  0.045849335115024425  0.8347015953217055  0.7564235026885218  1.0000
  H   H15       1.0  0.1516029754426611  0.5877744289168542  0.5306045339600634  1.0000
  H   H16       1.0  0.20097341388624756  0.42070276926153355  0.49500913713135475  1.0000
  H   H17       1.0  0.11559317106859358  0.26081766637666914  0.517900777430336  1.0000
  H   H18       1.0  0.8003519363428377  0.3468013034948286  0.6418922341309198  1.0000
  C   C28       1.0  0.9731953118601288  0.12897472565078205  0.23466555789496057  1.0000
  C   C29       1.0  0.9156655296308736  0.07160054836122542  0.17391940402304454  1.0000
  C   C30       1.0  0.9156654850861301  0.07160061449638255  0.043037261220938886  1.0000
  C   C31       1.0  0.9731952541853547  0.1289747762079354  0.9701559909522184  1.0000
  C   C32       1.0  0.0306775437263942  0.1863014075070133  0.03090212835811057  1.0000
  C   C33       1.0  0.030677533164378268  0.1863013915111227  0.16179442731197136  1.0000
  H   H19       1.0  0.031373198812104874  0.18699578348301293  0.5272393311339012  1.0000
  H   H20       1.0  0.8705709702697103  0.026627956576994908  0.22748638153459022  1.0000
  H   H21       1.0  0.8705709566517461  0.026628005129523572  0.9989823505736113  1.0000
  H   H22       1.0  0.07577799445708244  0.23127992551531307  0.9773794154044426  1.0000
  H   H23       1.0  0.07577795416546816  0.23127988935126825  0.20580378323993065  1.0000
  H   H24       1.0  0.031373420089745085  0.18699542413185924  0.6653103205143456  1.0000
  Zn  Zn1       1.0  0.8893862589820034  0.1289665979938906  0.6008482447363638  1.0000
  Zn  Zn2       1.0  0.056996984824463366  0.1289823839255095  0.6039726275654861  1.0000
  C   C34       1.0  0.9729941685157214  0.12486548189555992  0.8312541762072746  1.0000
  C   C35       1.0  0.9733909687521274  0.13308480169251521  0.3735668145993365  1.0000
  C   C36       1.0  0.9823334779626758  0.31736786739524847  0.5918436778004466  1.0000
  C   C37       1.0  0.9640515419724508  0.9405811768955182  0.6129774153902466  1.0000
  O   O2        1.0  0.0370638115637838  0.13446567134335297  0.4213691654386736  1.0000
  O   O3        1.0  0.036533950608768746  0.12349581524338497  0.7858228221855714  1.0000
  O   O4        1.0  0.0440747036406799  0.27894392597861517  0.5924971031203571  1.0000
  O   O5        1.0  0.02952300169576395  0.9790175679816207  0.6146947893231803  1.0000
  O   O6        1.0  0.9168601849134426  0.2789314139335155  0.5901260819058505  1.0000
  O   O7        1.0  0.909319492016993  0.1234845424913298  0.7834516975141641  1.0000
  O   O8        1.0  0.9098493512786396  0.13445436264606925  0.41899653620966704  1.0000
  O   O9        1.0  0.9023085410494683  0.9790062519065754  0.6123222542020633  1.0000
