data_image0
_chemical_formula_structural       NC9NC3OH6C8H10C7F3H5Zn2C4O8
_chemical_formula_sum              "N2 C31 O9 H21 F3 Zn2"
_cell_length_a       15.78231758774541
_cell_length_b       9.275653711864159
_cell_length_c       9.272291681409872
_cell_angle_alpha    86.24699051760598
_cell_angle_beta     90.4979467289142
_cell_angle_gamma    89.08352321082864

_space_group_name_H-M_alt    "P 1"
_space_group_IT_number       1

loop_
  _space_group_symop_operation_xyz
  'x, y, z'

loop_
  _atom_site_type_symbol
  _atom_site_label
  _atom_site_symmetry_multiplicity
  _atom_site_fract_x
  _atom_site_fract_y
  _atom_site_fract_z
  _atom_site_occupancy
  N   N1        1.0  0.7824551815404772  0.5553261356773542  0.41736839358208555  1.0000
  C   C1        1.0  0.7345459704244374  0.4644448706319924  0.4438113072631178  1.0000
  C   C2        1.0  0.6750647235010538  0.35163913340465114  0.4766337796301538  1.0000
  C   C3        1.0  0.6956980586376704  0.20993618254099444  0.5177759372988253  1.0000
  C   C4        1.0  0.6194382858418328  0.141262105114057  0.5377978005859321  1.0000
  C   C5        1.0  0.5569393595338165  0.2461389049965552  0.507393722611789  1.0000
  C   C6        1.0  0.463981600378786  0.2267496734291838  0.5131168464596427  1.0000
  C   C7        1.0  0.40942148229555275  0.3456390784375136  0.4784668026546171  1.0000
  C   C8        1.0  0.32132426872804565  0.3297404425213102  0.4831675764694135  1.0000
  C   C9        1.0  0.26604390179607473  0.4520889168378172  0.4475002168704969  1.0000
  N   N2        1.0  0.2216114838092569  0.5504412926596084  0.41882683210083016  1.0000
  C   C10       1.0  0.2871071084540823  0.19477547101027734  0.5225722215275221  1.0000
  C   C11       1.0  0.34073462918907  0.07613190856476314  0.5571554643820784  1.0000
  C   C12       1.0  0.4286491765073587  0.09159377117225763  0.5525824163668906  1.0000
  O   O1        1.0  0.5925460838432628  0.3704306046788019  0.4712527436633802  1.0000
  H   H1        1.0  0.7584856011620683  0.16214837312639085  0.5315940979110458  1.0000
  H   H2        1.0  0.6114797741017216  0.02834287137057378  0.5705998082630903  1.0000
  H   H3        1.0  0.4353067160146052  0.4506657119490251  0.4477977600922922  1.0000
  H   H4        1.0  0.21908335564937448  0.18131013209540356  0.5265511762778501  1.0000
  H   H5        1.0  0.31411415782990615  0.971823295715316  0.5876153077085526  1.0000
  H   H6        1.0  0.46837987941418285  0.9976197940757539  0.5799839388240149  1.0000
  C   C13       1.0  0.004410060641553357  0.12945638978908547  0.4167601050716261  1.0000
  C   C14       1.0  0.9839875019673552  0.21196549041017929  0.28811142969740633  1.0000
  C   C15       1.0  0.9559477949952385  0.1459751335321322  0.1650171100270108  1.0000
  C   C16       1.0  0.9495870812193948  0.9954924364053576  0.16960264046047357  1.0000
  C   C17       1.0  0.970912523330247  0.9117615390675647  0.2954758740751129  1.0000
  C   C18       1.0  0.9996647951826647  0.9762999464906614  0.41944753242321053  1.0000
  C   C19       1.0  0.935528419546743  0.23578955665202095  0.027580411394023223  1.0000
  C   C20       1.0  0.01440868279461925  0.255940070433226  0.9350652927635292  1.0000
  H   H7        1.0  0.0821633285074807  0.39488226611768906  0.6168480353019161  1.0000
  H   H8        1.0  0.9880286801910629  0.3287052717980996  0.2842406880018611  1.0000
  H   H9        1.0  0.9289018367777487  0.9426550056500332  0.07496694733312803  1.0000
  H   H10       1.0  0.9669902592466512  0.7953263559896803  0.29458280472347376  1.0000
  H   H11       1.0  0.008628535266892657  0.6791713385958214  0.6572230773495955  1.0000
  H   H12       1.0  0.8858670499820308  0.1829135236329504  0.9647234608160667  1.0000
  H   H13       1.0  0.9099180816882526  0.3434612064893161  0.05304923690622099  1.0000
  H   H14       1.0  0.06403837958693237  0.3121048135322515  0.9947520628999951  1.0000
  H   H15       1.0  0.03972007377085918  0.14949269321024827  0.9054830756549932  1.0000
  H   H16       1.0  0.9980082172178905  0.32230190370163014  0.8343860621309553  1.0000
  C   C21       1.0  0.00027455929905251394  0.5491967658045838  0.9947254542380685  1.0000
  C   C22       1.0  0.05777327435724522  0.4578157831904736  0.07484610644281298  1.0000
  C   C23       1.0  0.1198041969836709  0.37930404813991253  0.006006658416524369  1.0000
  C   C24       1.0  0.12680372427672054  0.3917963560043314  0.8551776915269307  1.0000
  C   C25       1.0  0.06764333223136426  0.4784191810939207  0.7738660750087281  1.0000
  C   C26       1.0  0.003800291392437982  0.5565596446834729  0.8414821734302658  1.0000
  C   C27       1.0  0.19234903347429666  0.30374683651591017  0.7805312805279092  1.0000
  F   F1        1.0  0.2634379459697984  0.27861119062930806  0.8676087911431463  1.0000
  F   F2        1.0  0.21730758266134842  0.3756233224935452  0.6527720770499861  1.0000
  F   F3        1.0  0.1581728441494482  0.17274006669408193  0.7500392987184332  1.0000
  H   H17       1.0  0.8793126481786572  0.8418957884698125  0.07534447059542115  1.0000
  H   H18       1.0  0.055865740031998845  0.4492289437006731  0.19185897955051368  1.0000
  H   H19       1.0  0.1628793017938377  0.3096050180556922  0.07114207960974994  1.0000
  H   H20       1.0  0.07003774390876849  0.48223843156966256  0.6568985108320295  1.0000
  H   H21       1.0  0.8109907450929881  0.6968257887744556  0.7279404649102572  1.0000
  Zn  Zn1       1.0  0.9091862566523357  0.5539126962913823  0.41779757411654783  1.0000
  Zn  Zn2       1.0  0.0948804952224111  0.5518430661172811  0.41840939997273563  1.0000
  C   C28       1.0  0.0031641595571296737  0.5494236459610771  0.6814088174699631  1.0000
  C   C29       1.0  0.0009046104875858309  0.5563339144088466  0.1547983105815236  1.0000
  C   C30       1.0  0.0005334743761025113  0.8161786081557403  0.4131943205118671  1.0000
  C   C31       1.0  0.003535242331514694  0.2895772212116949  0.4230128786987222  1.0000
  O   O2        1.0  0.07158609245473889  0.5579375022388777  0.20875238821472974  1.0000
  O   O3        1.0  0.07342031235963703  0.5462481653390647  0.6279186830260639  1.0000
  O   O4        1.0  0.07129505707927003  0.7616561945114061  0.4113335806982803  1.0000
  O   O5        1.0  0.07371128386232945  0.34252948314755916  0.42533738226555684  1.0000
  O   O6        1.0  0.9303554046440469  0.7632262799688716  0.4108695916073617  1.0000
  O   O7        1.0  0.9324806498931419  0.5478199825067844  0.6274546225596787  1.0000
  O   O8        1.0  0.930646423108605  0.55950925408658  0.20828659419323015  1.0000
  O   O9        1.0  0.9327716150206014  0.3441012256220055  0.42487169630464927  1.0000
