data_image0
_chemical_formula_structural       NC9NC3OH6C7OCH10C6NO2H3Zn2C4O8
_chemical_formula_sum              "N3 C30 O12 H19 Zn2"
_cell_length_a       15.78231758774541
_cell_length_b       10.30083208314754
_cell_length_c       9.273395971720358
_cell_angle_alpha    84.94403115029091
_cell_angle_beta     89.96902430017013
_cell_angle_gamma    89.62603918792362

_space_group_name_H-M_alt    "P 1"
_space_group_IT_number       1

loop_
  _space_group_symop_operation_xyz
  'x, y, z'

loop_
  _atom_site_type_symbol
  _atom_site_label
  _atom_site_symmetry_multiplicity
  _atom_site_fract_x
  _atom_site_fract_y
  _atom_site_fract_z
  _atom_site_occupancy
  N   N1        1.0  0.7995784316817283  0.4280993187498036  0.4097569266410067  1.0000
  C   C1        1.0  0.7510219857660269  0.3457908032243593  0.43655550714120844  1.0000
  C   C2        1.0  0.6907373610693187  0.24362592490371116  0.4698194489963166  1.0000
  C   C3        1.0  0.710361991680142  0.11529120378140245  0.5115160472471604  1.0000
  C   C4        1.0  0.6336129223630735  0.053094395252608395  0.531806723269225  1.0000
  C   C5        1.0  0.571860309866368  0.14807634537527914  0.5009923562333763  1.0000
  C   C6        1.0  0.47876402854149736  0.13051467571404718  0.5067914705815053  1.0000
  C   C7        1.0  0.4250509221145934  0.23819034557528673  0.4716760711322397  1.0000
  C   C8        1.0  0.3368400815396472  0.2237901226707595  0.4764391658169567  1.0000
  C   C9        1.0  0.2824314190474955  0.33459875815976936  0.44029289873915906  1.0000
  N   N2        1.0  0.2386997465438249  0.4236746182866942  0.4112345322592917  1.0000
  C   C10       1.0  0.30166100998381495  0.10155394854724119  0.516372182980014  1.0000
  C   C11       1.0  0.3544432445886167  0.9941008495849779  0.5514198257468268  1.0000
  C   C12       1.0  0.44246830488478733  0.008105488556017676  0.5467861670542362  1.0000
  O   O1        1.0  0.6083520867147175  0.2606433209076946  0.46436498875826837  1.0000
  H   H1        1.0  0.7728096621620426  0.07201266313950772  0.5255211106823852  1.0000
  H   H2        1.0  0.6248505107419965  0.9508276487099654  0.5650505724445896  1.0000
  H   H3        1.0  0.4516847211639643  0.3333118126266059  0.4405958544729312  1.0000
  H   H4        1.0  0.23354103350249  0.08935773025185956  0.5204039171616279  1.0000
  H   H5        1.0  0.32707932298686093  0.8996296778225956  0.5822880327908082  1.0000
  H   H6        1.0  0.48152943308822527  0.9229949807776187  0.5745555390223156  1.0000
  C   C13       1.0  0.01916661395528107  0.04454853528908487  0.41064729933007005  1.0000
  C   C14       1.0  0.9957470390065727  0.05557690011802463  0.26397997348257163  1.0000
  C   C15       1.0  0.9829651597997793  0.9439887356520907  0.19055971904780256  1.0000
  C   C16       1.0  0.9956863068535033  0.8203221614087505  0.26359833635746455  1.0000
  C   C17       1.0  0.019119662634542664  0.8072152256990454  0.4103566829157548  1.0000
  C   C18       1.0  0.030523534138564113  0.9198766490901835  0.4831021214529503  1.0000
  C   C19       1.0  0.9603373057146226  0.9569714664215071  0.032574579889394384  1.0000
  O   O2        1.0  0.0356884524273011  0.9629032357470676  0.9502997895276223  1.0000
  C   C20       1.0  0.015299890268842375  0.9751323798573868  0.8017055586088362  1.0000
  H   H7        1.0  0.02909944739839565  0.36774770359526016  0.4663938858629238  1.0000
  H   H8        1.0  0.9873683288169851  0.150888762527289  0.2062392511409284  1.0000
  H   H9        1.0  0.9872651340222042  0.7344894981924605  0.2055956175649618  1.0000
  H   H10       1.0  0.048592927540499264  0.9106082085683959  0.596214097872701  1.0000
  H   H11       1.0  0.06425474338971177  0.5752651901549062  0.6867680721175435  1.0000
  H   H12       1.0  0.9213538180954114  0.046862215826204194  0.008309297645129556  1.0000
  H   H13       1.0  0.9213882122641428  0.8717755130754327  0.007978388745334183  1.0000
  H   H14       1.0  0.07506307819865293  0.9796640094193305  0.7384969784365478  1.0000
  H   H15       1.0  0.979243245847513  0.06668666607020102  0.7714789292173011  1.0000
  H   H16       1.0  0.9792583769161494  0.8892078598332279  0.771121238349556  1.0000
  C   C21       1.0  0.019625061321083104  0.4298663395960498  0.9865653663317816  1.0000
  C   C22       1.0  0.9441031987816313  0.4602671276796478  0.05688665385398384  1.0000
  C   C23       1.0  0.8683449209603723  0.4783914750223057  0.9801957000853996  1.0000
  C   C24       1.0  0.865959267785118  0.4664853966489652  0.8308975788306899  1.0000
  C   C25       1.0  0.9414357137914786  0.43831016383082977  0.7591376130132605  1.0000
  C   C26       1.0  0.018661165254386665  0.4218974207670101  0.8344386110388609  1.0000
  N   N3        1.0  0.787409012616251  0.48420511728294313  0.7524893107412209  1.0000
  O   O3        1.0  0.7137724184506931  0.512854876999502  0.8230054955646668  1.0000
  O   O4        1.0  0.7847112203946717  0.47353055007744244  0.6194887671516724  1.0000
  H   H17       1.0  0.20504176297109877  0.2825195861772958  0.10366663756622053  1.0000
  H   H18       1.0  0.8113192882552162  0.5004988235457315  0.03837859637219166  1.0000
  H   H19       1.0  0.14508199860866966  0.3264758483795189  0.5634505903219214  1.0000
  Zn  Zn1       1.0  0.9262993447074981  0.4268188987862058  0.41019166289974734  1.0000
  Zn  Zn2       1.0  0.11197879226240848  0.4249443287127621  0.4108116013326877  1.0000
  C   C27       1.0  0.01884180763403019  0.4182304752830806  0.6741743593055651  1.0000
  C   C28       1.0  0.01943835668766279  0.4335343689021025  0.1468290527661904  1.0000
  C   C29       1.0  0.019130693651089995  0.6631091022244231  0.40465876400341383  1.0000
  C   C30       1.0  0.01914940731979285  0.18865418169955106  0.4163447254182846  1.0000
  O   O5        1.0  0.08984007992660431  0.43404833818445404  0.20085027552387547  1.0000
  O   O6        1.0  0.08936648929207842  0.4162927749514944  0.6206232402733738  1.0000
  O   O7        1.0  0.08959881680425426  0.6140353586009417  0.40298748651326166  1.0000
  O   O8        1.0  0.08960768917709139  0.2363057654814966  0.41848592082545477  1.0000
  O   O9        1.0  0.948670384429541  0.6154574626586553  0.40251734318783183  1.0000
  O   O10       1.0  0.9484380569049018  0.4177164399116007  0.6201530193788526  1.0000
  O   O11       1.0  0.9489116495717148  0.43547197420482137  0.20037831896543024  1.0000
  O   O12       1.0  0.9486792586962648  0.23772939119655787  0.4180140725063938  1.0000
