data_image0
_chemical_formula_structural       NC9NC3OH6C8NH6C7OCH10Zn2C4O8
_chemical_formula_sum              "N3 C32 O10 H22 Zn2"
_cell_length_a       15.78231758774541
_cell_length_b       9.27426342843186
_cell_length_c       10.300835455316063
_cell_angle_alpha    85.53020100870764
_cell_angle_beta     90.10164199731037
_cell_angle_gamma    90.24871893605766

_space_group_name_H-M_alt    "P 1"
_space_group_IT_number       1

loop_
  _space_group_symop_operation_xyz
  'x, y, z'

loop_
  _atom_site_type_symbol
  _atom_site_label
  _atom_site_symmetry_multiplicity
  _atom_site_fract_x
  _atom_site_fract_y
  _atom_site_fract_z
  _atom_site_occupancy
  N   N1        1.0  0.8075033421637775  0.5693256823163035  0.5691425409138833  1.0000
  C   C1        1.0  0.7584002436189643  0.4781894216858585  0.5932752578626663  1.0000
  C   C2        1.0  0.6974370906475076  0.3650671696398473  0.6232301758988681  1.0000
  C   C3        1.0  0.716209263924988  0.2229673765684521  0.6607789814089344  1.0000
  C   C4        1.0  0.6390471697646596  0.15410026843674252  0.679051143251221  1.0000
  C   C5        1.0  0.57792553380688  0.25927038635895405  0.651302004287067  1.0000
  C   C6        1.0  0.484712729165165  0.23982605643593335  0.656524149494319  1.0000
  C   C7        1.0  0.43171467166598537  0.35904953581228716  0.6249020133685754  1.0000
  C   C8        1.0  0.3434082952680329  0.34310565280767125  0.629191206947687  1.0000
  C   C9        1.0  0.28973547432732455  0.46579799959064033  0.5966407630801447  1.0000
  N   N2        1.0  0.24659532160599318  0.5644268166931763  0.5704731184259855  1.0000
  C   C10       1.0  0.3074175776918064  0.20776084339070985  0.6651516333756091  1.0000
  C   C11       1.0  0.3594862481033782  0.08878385603774853  0.6967127481161797  1.0000
  C   C12       1.0  0.4476042178346527  0.10428973475879676  0.6925401138460412  1.0000
  O   O1        1.0  0.6151649569207714  0.3839106282468688  0.6183182220350438  1.0000
  H   H1        1.0  0.7783693806268954  0.17504621888732297  0.6733909430292189  1.0000
  H   H2        1.0  0.6296054794832049  0.04086465748194202  0.7089880237890276  1.0000
  H   H3        1.0  0.4589800683103011  0.46437179524323563  0.5969137043602688  1.0000
  H   H4        1.0  0.23921668421967743  0.19425720262808688  0.6687822351563395  1.0000
  H   H5        1.0  0.33149504745694625  0.9841816343128238  0.724510138055652  1.0000
  H   H6        1.0  0.4861001650463257  0.010051583590449113  0.7175469881181986  1.0000
  C   C13       1.0  0.024372299174428836  0.1433227301813087  0.5700756547497448  1.0000
  C   C14       1.0  0.013398507453745703  0.22678304860231918  0.4513703077196081  1.0000
  C   C15       1.0  0.010735016763451004  0.16187979754116677  0.3337643887691124  1.0000
  C   C16       1.0  0.01966816821056859  0.011997964913278427  0.33195694720159064  1.0000
  C   C17       1.0  0.028367983238529054  0.92705826730361  0.4498594266621616  1.0000
  C   C18       1.0  0.02973438642627246  0.9904186464458073  0.5695512665825266  1.0000
  C   C19       1.0  0.015532476745846457  0.942032971506319  0.20524957022407198  1.0000
  C   C20       1.0  0.9276187171019902  0.9040721475889039  0.17612387832583942  1.0000
  N   N3        1.0  0.858230262883978  0.8741091342979955  0.15314417757252974  1.0000
  H   H7        1.0  0.09754571712639487  0.22082818122300035  0.8696696410808339  1.0000
  H   H8        1.0  0.0024953605879693983  0.2288830477944606  0.24375160329072254  1.0000
  H   H9        1.0  0.032026007523509044  0.8105275774330216  0.4481600935403091  1.0000
  H   H10       1.0  0.07570260594092049  0.6924482801697334  0.773008511568765  1.0000
  H   H11       1.0  0.05467812304277239  0.8424818752997387  0.21039329383343275  1.0000
  H   H12       1.0  0.04053829382969943  0.016552104808640555  0.12451745675789573  1.0000
  C   C21       1.0  0.026975888432189565  0.5667979353620738  0.18849672405348916  1.0000
  C   C22       1.0  0.10520913325222375  0.6397219684038984  0.18275031743825698  1.0000
  C   C23       1.0  0.14413038540502376  0.6779839017129756  0.06263036711159797  1.0000
  C   C24       1.0  0.10541270333154085  0.6399113754307615  0.9474520270230865  1.0000
  C   C25       1.0  0.027130807676248637  0.5669433790160874  0.9511302034372369  1.0000
  C   C26       1.0  0.9882795868958394  0.531125754880223  0.07208469874187262  1.0000
  C   C27       1.0  0.228993836778436  0.7522205730030169  0.05787428190052202  1.0000
  O   O2        1.0  0.29307795975127005  0.6462208593573524  0.06564373485981867  1.0000
  C   C28       1.0  0.3731010916151289  0.7145601479132406  0.061302147549977315  1.0000
  H   H13       1.0  0.9974757525734066  0.5373681977359528  0.5182027121778165  1.0000
  H   H14       1.0  0.13620037617425895  0.6670344781569943  0.2715650827023841  1.0000
  H   H15       1.0  0.13654357857582258  0.6673552288463018  0.855092300832481  1.0000
  H   H16       1.0  0.9279467195446675  0.47487261498658095  0.07575425992955198  1.0000
  H   H17       1.0  0.879919142461993  0.42785240961826254  0.7509211462411711  1.0000
  H   H18       1.0  0.23392310987818987  0.8225725688333965  0.14052691902064995  1.0000
  H   H19       1.0  0.23411956252969512  0.822592378362977  0.9654134523644284  1.0000
  H   H20       1.0  0.42276221500274974  0.6300137778444652  0.06748378781218078  1.0000
  H   H21       1.0  0.3820956308703487  0.7814367193615184  0.14542954415283438  1.0000
  H   H22       1.0  0.3823028883674553  0.7814945742644137  0.9679191177433171  1.0000
  Zn  Zn1       1.0  0.9342157760113458  0.5679081242552775  0.5695340116679775  1.0000
  Zn  Zn2       1.0  0.11988278690610538  0.5658326048634965  0.5700922698258204  1.0000
  C   C29       1.0  0.02706324831321381  0.5611699652309645  0.8069796768411244  1.0000
  C   C30       1.0  0.02703735362783122  0.5725725611206027  0.3326467370712245  1.0000
  C   C31       1.0  0.028715421011007637  0.8302985124463701  0.5644758952191113  1.0000
  C   C32       1.0  0.025385106619783656  0.3034422817334641  0.5751505888046708  1.0000
  O   O3        1.0  0.09751760510084195  0.573716637035385  0.3812366582235529  1.0000
  O   O4        1.0  0.09749995510362192  0.5584495299577006  0.7588130875921073  1.0000
  O   O5        1.0  0.0988331558959527  0.7757742463045714  0.5629895643934557  1.0000
  O   O6        1.0  0.096184340998473  0.35639193169602357  0.5770600838639788  1.0000
  O   O7        1.0  0.9579141585599481  0.7773487981325917  0.562566197432482  1.0000
  O   O8        1.0  0.9565809687188407  0.5600258146672952  0.7583896503223635  1.0000
  O   O9        1.0  0.956598618137154  0.575292871184687  0.3808116597980735  1.0000
  O   O10       1.0  0.9552653539857928  0.3579681555476577  0.5766351827993881  1.0000
