data_image0
_chemical_formula_structural       NC8OCOC5NC2H8C12H9C14H9Zn2C4O8
_chemical_formula_sum              "N2 C46 O10 H26 Zn2"
_cell_length_a       21.308487190773796
_cell_length_b       14.994057918209652
_cell_length_c       14.390576945434873
_cell_angle_alpha    84.0723446781622
_cell_angle_beta     91.44863786001876
_cell_angle_gamma    90.1454389238406

_space_group_name_H-M_alt    "P 1"
_space_group_IT_number       1

loop_
  _space_group_symop_operation_xyz
  'x, y, z'

loop_
  _atom_site_type_symbol
  _atom_site_label
  _atom_site_symmetry_multiplicity
  _atom_site_fract_x
  _atom_site_fract_y
  _atom_site_fract_z
  _atom_site_occupancy
  N   N1        1.0  0.5651372007664983  0.005280123785934599  0.9617671860900829  1.0000
  C   C1        1.0  0.5122799152170536  0.018095820277169904  0.9714066283199506  1.0000
  C   C2        1.0  0.44653085203423754  0.03403739124147419  0.9833966680112985  1.0000
  C   C3        1.0  0.4260231073244263  0.06441659808140243  0.06620470385759736  1.0000
  C   C4        1.0  0.3621603341534984  0.07981805033089387  0.07795557926867738  1.0000
  C   C5        1.0  0.3179637565047264  0.06564095004906711  0.006682094137229979  1.0000
  C   C6        1.0  0.3390094555974728  0.03419337104197485  0.9240310740652584  1.0000
  C   C7        1.0  0.4028942434193124  0.01877851578643704  0.9124642204187735  1.0000
  C   C8        1.0  0.2502518443616814  0.08142592764053871  0.020440238123013096  1.0000
  O   O1        1.0  0.22993164417856188  0.07572285721784654  0.10240982719399849  1.0000
  C   C9        1.0  0.2061941491650069  0.10679599187750168  0.9408887350031965  1.0000
  O   O2        1.0  0.226742025023495  0.1503871680531368  0.8682898448122573  1.0000
  C   C10       1.0  0.1382576167646925  0.08518512190246726  0.9453979215123297  1.0000
  C   C11       1.0  0.09447213034089938  0.13942640079114865  0.8910464153872819  1.0000
  C   C12       1.0  0.03039605611127891  0.11932973265068834  0.8940174964856384  1.0000
  C   C13       1.0  0.009255809864044612  0.044436120120774567  0.9507884775581713  1.0000
  C   C14       1.0  0.9432864870190356  0.023737199636626027  0.953716526482959  1.0000
  N   N2        1.0  0.8902522113979453  0.007096697853965691  0.9560707445714226  1.0000
  C   C15       1.0  0.0524704789809017  0.9894730427541515  0.004353001198367343  1.0000
  C   C16       1.0  0.11656797019942831  0.009472334595826745  0.0015452311889898574  1.0000
  H   H1        1.0  0.4593747432103335  0.07618560370544339  0.12170931783823129  1.0000
  H   H2        1.0  0.3473714676501056  0.10354217217155481  0.14252947522829085  1.0000
  H   H3        1.0  0.3061381991172351  0.020103115605436327  0.8688626344140156  1.0000
  H   H4        1.0  0.4182017283647036  0.9945520682558686  0.848374034354463  1.0000
  H   H5        1.0  0.10975464727838521  0.19785794449482408  0.8467921388736839  1.0000
  H   H6        1.0  0.9973726586818089  0.1621925951791361  0.8520251518248114  1.0000
  H   H7        1.0  0.0366654681930565  0.930898581744919  0.047964255670145416  1.0000
  H   H8        1.0  0.1490863996903919  0.9648266975309109  0.04218676884678818  1.0000
  C   C17       1.0  0.7277236073296249  0.7442206315880803  0.958908849333286  1.0000
  C   C18       1.0  0.7655827153928515  0.690367881977143  0.023419240106156817  1.0000
  C   C19       1.0  0.7655522851749313  0.5971430972336316  0.023458357791141693  1.0000
  C   C20       1.0  0.727715290940161  0.5557184075492191  0.9589586297832013  1.0000
  C   C21       1.0  0.6898916573771985  0.6096705005370135  0.8944502757702499  1.0000
  C   C22       1.0  0.6898820256448231  0.7028938533614975  0.8944612219448771  1.0000
  C   C23       1.0  0.7277007960419767  0.45664363386758033  0.9589665389523054  1.0000
  C   C24       1.0  0.726570225300159  0.41732793760112274  0.8743884593326918  1.0000
  C   C25       1.0  0.7265825908680987  0.3241036362234553  0.8743874649077168  1.0000
  C   C26       1.0  0.7276720250740016  0.2681491651009249  0.9589370340021452  1.0000
  C   C27       1.0  0.728776824970882  0.30736186044219355  0.043550526226447395  1.0000
  C   C28       1.0  0.7288174295225769  0.4005828290087561  0.04355080814935364  1.0000
  H   H9        1.0  0.7954059280797386  0.7202446831186596  0.07380776727304517  1.0000
  H   H10       1.0  0.7958198068042238  0.5575185134712403  0.07322019900454459  1.0000
  H   H11       1.0  0.6596146095337463  0.579696161082866  0.8446969433939526  1.0000
  H   H12       1.0  0.6600638364483827  0.7425180011666356  0.8440581991540195  1.0000
  H   H13       1.0  0.7265266847451226  0.4586946675867958  0.8080986100848597  1.0000
  H   H14       1.0  0.7258980380190346  0.29594038909702813  0.8080494411967531  1.0000
  H   H15       1.0  0.7264798772119048  0.06383323113022596  0.8733758579905418  1.0000
  H   H16       1.0  0.7294510570341091  0.2660262045857566  0.10988244136091829  1.0000
  H   H17       1.0  0.7288719099839873  0.4288143385571478  0.10983806536472607  1.0000
  C   C29       1.0  0.7209142990289011  0.01302105024171896  0.6852585482811422  1.0000
  C   C30       1.0  0.7333621313863162  0.0009551197673960451  0.5916265982094784  1.0000
  C   C31       1.0  0.6945098153813938  0.03896632687694668  0.5176654688530027  1.0000
  C   C32       1.0  0.6424553209140126  0.08992614442505875  0.5379377366411067  1.0000
  C   C33       1.0  0.6296062522940643  0.10304270373681403  0.6300453496091143  1.0000
  C   C34       1.0  0.6682264616180267  0.06537849095690416  0.7039690906351128  1.0000
  C   C35       1.0  0.6530841238229682  0.0840232331121877  0.797265209072654  1.0000
  C   C36       1.0  0.6400934581325068  0.10007002423825838  0.8749096213207591  1.0000
  C   C37       1.0  0.7082919769415813  0.025304134426251228  0.41944970898253664  1.0000
  C   C38       1.0  0.7703020504248422  0.029551974608642118  0.3882038909626213  1.0000
  C   C39       1.0  0.7832629324205694  0.01674318173811384  0.2957816306730432  1.0000
  C   C40       1.0  0.7344812943747802  0.9993487545764118  0.23258737067382448  1.0000
  C   C41       1.0  0.6725060722113769  0.9950875488632488  0.2637507800812364  1.0000
  C   C42       1.0  0.6595417669205003  0.007968286318726038  0.35615828561786733  1.0000
  H   H18       1.0  0.7728312802571647  0.9600578751817761  0.5761125254975539  1.0000
  H   H19       1.0  0.6121535980589412  0.12096759484573694  0.4823182017992058  1.0000
  H   H20       1.0  0.5894208526148497  0.14348557697387787  0.6436532539536303  1.0000
  H   H21       1.0  0.6287164658604364  0.1141234271153282  0.9430548214254322  1.0000
  H   H22       1.0  0.8087719656622908  0.04397319595150619  0.43495417491142807  1.0000
  H   H23       1.0  0.8315078367161042  0.020701841872287297  0.2738010377683999  1.0000
  H   H24       1.0  0.6339200129898335  0.9815710267912546  0.21682855478561236  1.0000
  H   H25       1.0  0.6113830578472434  0.003191611325836791  0.37844371432440616  1.0000
  H   H26       1.0  0.7080484110576365  0.9591392570511802  0.005428963797456498  1.0000
  Zn  Zn1       1.0  0.658958505667043  0.0058018313442422835  0.9601286978854948  1.0000
  Zn  Zn2       1.0  0.7964310918620036  0.0065675214372218306  0.9577168670202565  1.0000
  C   C43       1.0  0.7319158085872235  0.9983792302782197  0.12913031165431765  1.0000
  C   C44       1.0  0.7234752922946124  0.013991254170642392  0.7887153184428177  1.0000
  C   C45       1.0  0.7275864796999544  0.16920827457727836  0.9552181443306127  1.0000
  C   C46       1.0  0.7278045756092194  0.843161136575284  0.9626275362164083  1.0000
  O   O3        1.0  0.7765049154294287  0.014603546994087509  0.8225210781449479  1.0000
  O   O4        1.0  0.7832246908918478  0.9983474122345434  0.0934937598291351  1.0000
  O   O5        1.0  0.779728023804809  0.13629399781110374  0.9530584666462674  1.0000
  O   O6        1.0  0.7800015338737287  0.876656969283303  0.9629563022766081  1.0000
  O   O7        1.0  0.6753880167425489  0.13571238323796253  0.9548892634472812  1.0000
  O   O8        1.0  0.6788846824894814  0.9977668706975039  0.09532450699840134  1.0000
  O   O9        1.0  0.6721648792988059  0.014023002358876125  0.8243507048749863  1.0000
  O   O10       1.0  0.6756614994730762  0.8760764165221168  0.964785998875992  1.0000
