data_image0
_chemical_formula_structural       NC9NC3SH6C12H9C7NC2NH8Zn2C4O8
_chemical_formula_sum              "N4 C37 S1 H23 Zn2 O8"
_cell_length_a       16.77567553997237
_cell_length_b       10.299137764757564
_cell_length_c       9.27399911348925
_cell_angle_alpha    85.04301149889446
_cell_angle_beta     90.06803896743476
_cell_angle_gamma    90.9119803869589

_space_group_name_H-M_alt    "P 1"
_space_group_IT_number       1

loop_
  _space_group_symop_operation_xyz
  'x, y, z'

loop_
  _atom_site_type_symbol
  _atom_site_label
  _atom_site_symmetry_multiplicity
  _atom_site_fract_x
  _atom_site_fract_y
  _atom_site_fract_z
  _atom_site_occupancy
  N   N1        1.0  0.7561406990326107  0.4525149870728152  0.41524184427037847  1.0000
  C   C1        1.0  0.7012531629194908  0.5014843519898244  0.46146309661733476  1.0000
  C   C2        1.0  0.6331369419596965  0.5622520999756098  0.5188201342510048  1.0000
  C   C3        1.0  0.63494968287607  0.6495202856924226  0.6244404335615146  1.0000
  C   C4        1.0  0.5592088615379397  0.6927226207006226  0.6594516448851082  1.0000
  C   C5        1.0  0.4974470215194872  0.6392881150073331  0.5809851144440461  1.0000
  C   C6        1.0  0.4109231239729337  0.6652607205895067  0.5930385830802629  1.0000
  C   C7        1.0  0.35429819426002224  0.5861735917901865  0.5282788170704606  1.0000
  C   C8        1.0  0.2726273472616205  0.6101447631704658  0.5391584661787134  1.0000
  C   C9        1.0  0.2153393696109683  0.528400959791216  0.47284859238266463  1.0000
  N   N2        1.0  0.1692968299096324  0.4626906537076337  0.4195452512317943  1.0000
  C   C10       1.0  0.24675225147244706  0.713518041973855  0.6146187402873329  1.0000
  C   C11       1.0  0.3022872236893535  0.7927680222131057  0.6788654531106018  1.0000
  C   C12       1.0  0.3837994376153223  0.7691575649298947  0.6683131253747716  1.0000
  S   S1        1.0  0.5383724732722424  0.5380730532295255  0.46863748138945965  1.0000
  H   H1        1.0  0.6891952388182764  0.6809849958192973  0.6752992031855884  1.0000
  H   H2        1.0  0.550694808641594  0.7599885399460863  0.7411039566141022  1.0000
  H   H3        1.0  0.3732658554983901  0.5053250218968897  0.47000769889192845  1.0000
  H   H4        1.0  0.1837433299777593  0.7329083180199378  0.6236029835948441  1.0000
  H   H5        1.0  0.2821399166259086  0.8730077711865889  0.7367838781118781  1.0000
  H   H6        1.0  0.4250933014338674  0.8334141158064701  0.718042103513908  1.0000
  C   C13       1.0  0.9626453369843384  0.07619989006978069  0.41755014678169067  1.0000
  C   C14       1.0  0.9631039334742532  0.08725576407310576  0.2655755737690735  1.0000
  C   C15       1.0  0.9634157680698736  0.975732974041963  0.1883635890447446  1.0000
  C   C16       1.0  0.9632627597333185  0.8520075975884988  0.2651803232728296  1.0000
  C   C17       1.0  0.9627997705106813  0.8389958667036388  0.4172495657511459  1.0000
  C   C18       1.0  0.9624952460159321  0.9516169694175287  0.49249828941276985  1.0000
  C   C19       1.0  0.9638999737163032  0.9884738867319722  0.027589495849108307  1.0000
  C   C20       1.0  0.01223314269879916  0.9079583814893356  0.9504464484913685  1.0000
  C   C21       1.0  0.012589841085985489  0.9201992578255842  0.7991099734783546  1.0000
  C   C22       1.0  0.9648189231437511  0.012601239272740813  0.7232078098443449  1.0000
  C   C23       1.0  0.9165916444031433  0.09301963146820572  0.7984880222302665  1.0000
  C   C24       1.0  0.9160344901614312  0.0812687072583347  0.9498233845993793  1.0000
  H   H7        1.0  0.9643229091452744  0.18287250565483396  0.2069062981279539  1.0000
  H   H8        1.0  0.9624032605990039  0.7656797359334947  0.20621546740752564  1.0000
  H   H9        1.0  0.9621393375454652  0.942373736845787  0.609719742168221  1.0000
  H   H10       1.0  0.9614189822013881  0.6071328560490149  0.7042670041250629  1.0000
  H   H11       1.0  0.05047512131778676  0.8367949057587548  0.007104518752101718  1.0000
  H   H12       1.0  0.050106012800704036  0.8581758449242316  0.7406493807460475  1.0000
  H   H13       1.0  0.965172678189395  0.02188697690532027  0.6060638270898218  1.0000
  H   H14       1.0  0.8794300329374093  0.1643495098597481  0.7395421350620581  1.0000
  H   H15       1.0  0.8774522015534031  0.1434913548684471  0.005975171565320687  1.0000
  C   C25       1.0  0.9641000823592465  0.4609558506789  0.9935614918178488  1.0000
  C   C26       1.0  0.02666785423318729  0.4003052106362282  0.07272236610171912  1.0000
  C   C27       1.0  0.08395661681832323  0.33027812484038765  0.004695223637872335  1.0000
  C   C28       1.0  0.08021724050096601  0.3184730809220555  0.855364520117186  1.0000
  C   C29       1.0  0.01884973206552498  0.3813466280018049  0.7746566348305368  1.0000
  C   C30       1.0  0.9613450315308041  0.45423991181278955  0.8412381602630514  1.0000
  C   C31       1.0  0.14138344414392925  0.24230197890096336  0.7853368522404751  1.0000
  N   N3        1.0  0.2081334727123718  0.1985656604087802  0.8540889194312142  1.0000
  C   C32       1.0  0.24671295312071814  0.13452941767255555  0.7551935126121667  1.0000
  C   C33       1.0  0.20316774349248856  0.1399297913198123  0.62919530265822  1.0000
  N   N4        1.0  0.13692302027272207  0.20764995500820033  0.6483108819243535  1.0000
  H   H16       1.0  0.8792716184817726  0.6228017727950212  0.2591901483590773  1.0000
  H   H17       1.0  0.03027993957790942  0.4042591750112708  0.18890961036992993  1.0000
  H   H18       1.0  0.13069882382377274  0.28358297712594416  0.06992877339889203  1.0000
  H   H19       1.0  0.016877022153884754  0.3777838036186656  0.6585324832240591  1.0000
  H   H20       1.0  0.8369737986861132  0.5244804777630727  0.5541515215550943  1.0000
  H   H21       1.0  0.3030979982979207  0.08648566209824216  0.7741688486623515  1.0000
  H   H22       1.0  0.21846123139554985  0.09693812756063536  0.5306791054402683  1.0000
  H   H23       1.0  0.09182628849873664  0.2262256491974779  0.5721279508485031  1.0000
  Zn  Zn1       1.0  0.8753686087941345  0.4554479308956004  0.4164920595491195  1.0000
  Zn  Zn2       1.0  0.050068874514873185  0.459747020679938  0.4183068929159548  1.0000
  C   C34       1.0  0.9618629683251592  0.4503351805811286  0.6810111741785417  1.0000
  C   C35       1.0  0.963576422576697  0.46486145558394343  0.15378793911984248  1.0000
  C   C36       1.0  0.9627851744778196  0.6948566582470852  0.4115548437243781  1.0000
  C   C37       1.0  0.9626541562450163  0.2203384153994026  0.4232443465187399  1.0000
  O   O1        1.0  0.02969851680569158  0.4677980281889593  0.2082501205586158  1.0000
  O   O2        1.0  0.028334334641193275  0.4506605411299731  0.6279259941812041  1.0000
  O   O3        1.0  0.029078129168106818  0.6481146928580571  0.4103380910746295  1.0000
  O   O4        1.0  0.02895466301901495  0.2703438851423279  0.42583791482388783  1.0000
  O   O5        1.0  0.896482760673391  0.6448510649676156  0.40896103701428044  1.0000
  O   O6        1.0  0.8957389667088961  0.4473984742925219  0.6265488625492153  1.0000
  O   O7        1.0  0.8971031545571169  0.4645359298410114  0.20687125366593387  1.0000
  O   O8        1.0  0.8963593004136013  0.267081776647333  0.42445915614560287  1.0000
