data_image0
_chemical_formula_structural       NC9NC3OH6C8H6C7F3H5Zn2C4O8
_chemical_formula_sum              "N2 C31 O9 H17 F3 Zn2"
_cell_length_a       15.78231758774541
_cell_length_b       9.27514070457351
_cell_length_c       9.272721663655245
_cell_angle_alpha    86.0082858104151
_cell_angle_beta     90.60221336655935
_cell_angle_gamma    90.22379856908987

_space_group_name_H-M_alt    "P 1"
_space_group_IT_number       1

loop_
  _space_group_symop_operation_xyz
  'x, y, z'

loop_
  _atom_site_type_symbol
  _atom_site_label
  _atom_site_symmetry_multiplicity
  _atom_site_fract_x
  _atom_site_fract_y
  _atom_site_fract_z
  _atom_site_occupancy
  N   N1        1.0  0.7989565345281463  0.5604191670803964  0.41588834488860627  1.0000
  C   C1        1.0  0.7500129076766051  0.4694536238374523  0.4424051462763802  1.0000
  C   C2        1.0  0.689247699841057  0.3565432756246925  0.47531933131913856  1.0000
  C   C3        1.0  0.7082680704789375  0.2147092013018193  0.516576678653913  1.0000
  C   C4        1.0  0.6312266883494279  0.14597130894217372  0.5366543826030374  1.0000
  C   C5        1.0  0.5699215937528491  0.2509450071432558  0.5061650595316323  1.0000
  C   C6        1.0  0.4767432320249796  0.23153753144581082  0.5119039626550472  1.0000
  C   C7        1.0  0.42353625841776565  0.3505373747165861  0.4771572491097739  1.0000
  C   C8        1.0  0.3352581652889769  0.33462375336986594  0.4818709630161053  1.0000
  C   C9        1.0  0.2813703026098909  0.4570859087824846  0.4461041193348696  1.0000
  N   N2        1.0  0.23805727671996899  0.5555296741563536  0.4173507619349958  1.0000
  C   C10       1.0  0.2995049696394638  0.19953318650680307  0.5213853622007261  1.0000
  C   C11       1.0  0.35178214912084  0.08077939850048566  0.5560650758242889  1.0000
  C   C12       1.0  0.4398726053040111  0.09625583942622831  0.5514794429426211  1.0000
  O   O1        1.0  0.6069430377967932  0.3753518934572959  0.4699230341384981  1.0000
  H   H1        1.0  0.7705115977554273  0.1668773547209308  0.5304336749586258  1.0000
  H   H2        1.0  0.6219828670078175  0.03294753175262489  0.5695481850281805  1.0000
  H   H3        1.0  0.45061679391485143  0.45566176061546493  0.4464027974107744  1.0000
  H   H4        1.0  0.231328018501274  0.1860551633234797  0.5253752761022115  1.0000
  H   H5        1.0  0.32397454823468974  0.9763737000305325  0.5866097444728502  1.0000
  H   H6        1.0  0.47853375351051175  0.0021945263355345208  0.5789573787291336  1.0000
  C   C13       1.0  0.01593175665537293  0.13455674878754365  0.4156025440816903  1.0000
  C   C14       1.0  0.027329669366622518  0.2171393458777622  0.2841047788860589  1.0000
  C   C15       1.0  0.04614401619623543  0.15091165011840624  0.15779983885972082  1.0000
  C   C16       1.0  0.05401370844735598  0.0009093663884638439  0.160567312761277  1.0000
  C   C17       1.0  0.04151807302523824  0.9167449956190611  0.28969817835376444  1.0000
  C   C18       1.0  0.021090116786144808  0.9813809972888945  0.41764905013125864  1.0000
  C   C19       1.0  0.07396253821719045  0.9328957004094697  0.030235622908029173  1.0000
  C   C20       1.0  0.09066542869091165  0.8759359796318722  0.9211200528069625  1.0000
  H   H7        1.0  0.03167742610038626  0.21285945047099605  0.7699636086298909  1.0000
  H   H8        1.0  0.02366285555856007  0.33398045903368145  0.2796758958321799  1.0000
  H   H9        1.0  0.05538431235912311  0.21699466032060347  0.05814603458798761  1.0000
  H   H10       1.0  0.04578825668943651  0.8000892229298031  0.28953427213797744  1.0000
  H   H11       1.0  0.028440508666387698  0.6841020281487579  0.6563923485528316  1.0000
  H   H12       1.0  0.10532697897613769  0.8259356130805902  0.8253394965791578  1.0000
  C   C21       1.0  0.01625491851360028  0.5556552022825295  0.9931694361392769  1.0000
  C   C22       1.0  0.05159699112045388  0.437316477570342  0.07572685951982816  1.0000
  C   C23       1.0  0.09441749409260874  0.32747165112149823  0.009702398638664183  1.0000
  C   C24       1.0  0.09928816723144229  0.3340575545606903  0.8585847123505229  1.0000
  C   C25       1.0  0.06342566239848585  0.4493998590388768  0.7750500598417689  1.0000
  C   C26       1.0  0.020766995584118746  0.5602825637233821  0.8400820998014307  1.0000
  C   C27       1.0  0.12990193757096025  0.19959485603072902  0.09986246176898228  1.0000
  F   F1        1.0  0.15869107737873311  0.2411834887201898  0.23229171457718276  1.0000
  F   F2        1.0  0.19707670328127447  0.13920271988742863  0.030823348814679852  1.0000
  F   F3        1.0  0.06706536319729617  0.09650106711166484  0.12244018691543056  1.0000
  H   H13       1.0  0.9646392334631516  0.8996047750322158  0.07003971753663296  1.0000
  H   H14       1.0  0.04733514444802475  0.4322410368270107  0.19254602375535113  1.0000
  H   H15       1.0  0.1300889443597435  0.24900801801610029  0.804576459255903  1.0000
  H   H16       1.0  0.06705916407594326  0.44982058446342976  0.6584086486447276  1.0000
  H   H17       1.0  0.870200268435023  0.8051704409449932  0.7188725791065766  1.0000
  Zn  Zn1       1.0  0.9256715408489878  0.5590043590451579  0.4163186779873922  1.0000
  Zn  Zn2       1.0  0.11134223302351515  0.5569327784575228  0.41693218832054524  1.0000
  C   C28       1.0  0.01987721883879144  0.5536637816695605  0.6799836015829519  1.0000
  C   C29       1.0  0.01713859438803555  0.5622751532743723  0.15326741735456806  1.0000
  C   C30       1.0  0.020080118287937314  0.8212818390509207  0.4115158754034933  1.0000
  C   C31       1.0  0.016935621439615023  0.2946553646824449  0.4217352160179657  1.0000
  O   O2        1.0  0.08789618581546449  0.5637044248329459  0.20723057113592366  1.0000
  O   O3        1.0  0.09003937780699695  0.5506611383658822  0.6264856702168635  1.0000
  O   O4        1.0  0.09020227981772479  0.7667661229837519  0.4096960823577529  1.0000
  O   O5        1.0  0.08773321993470645  0.34759945064575626  0.4240200506897882  1.0000
  O   O6        1.0  0.9492804905774714  0.7683376875653809  0.40923081540120715  1.0000
  O   O7        1.0  0.9491175987056922  0.5522344348665362  0.6260203305594363  1.0000
  O   O8        1.0  0.9469743972278096  0.5652776616145725  0.20676349764221388  1.0000
  O   O9        1.0  0.9468114318567559  0.34917267770515986  0.42355308528438274  1.0000
