data_image0
_chemical_formula_structural       NC5NC3F3CH3C6NCH9C7OH5Zn2C4O8
_chemical_formula_sum              "N3 C27 F3 H17 O9 Zn2"
_cell_length_a       13.85151926108384
_cell_length_b       9.273386996610926
_cell_length_c       9.274074313596557
_cell_angle_alpha    86.02935137670892
_cell_angle_beta     90.23361225849852
_cell_angle_gamma    89.3985898819531

_space_group_name_H-M_alt    "P 1"
_space_group_IT_number       1

loop_
  _space_group_symop_operation_xyz
  'x, y, z'

loop_
  _atom_site_type_symbol
  _atom_site_label
  _atom_site_symmetry_multiplicity
  _atom_site_fract_x
  _atom_site_fract_y
  _atom_site_fract_z
  _atom_site_occupancy
  N   N1        1.0  0.8937498736348514  0.5632414628923079  0.4076357641382244  1.0000
  C   C1        1.0  0.8216504104250343  0.5547714339364462  0.4701036676510168  1.0000
  C   C2        1.0  0.7319530217699077  0.5442335600061026  0.547822676012296  1.0000
  C   C3        1.0  0.6441611774455341  0.5527169724127821  0.4722993113739961  1.0000
  C   C4        1.0  0.5569010323051395  0.5442335466589174  0.547822655979832  1.0000
  C   C5        1.0  0.46663115844240427  0.5547714510151567  0.47010376167130574  1.0000
  N   N2        1.0  0.39407168856864444  0.5632414260250914  0.4076358696304209  1.0000
  C   C6        1.0  0.5574309571125866  0.5262701101820755  0.6990470156350215  1.0000
  C   C7        1.0  0.6452576710020848  0.5146081470405806  0.7758374640953747  1.0000
  C   C8        1.0  0.6458009693344443  0.5006255394620178  0.9388485221696297  1.0000
  F   F1        1.0  0.7273989159776114  0.4262907200604884  0.9905622098366804  1.0000
  F   F2        1.0  0.5655301017962978  0.42629069042474926  0.9905623091620759  1.0000
  F   F3        1.0  0.6449832060224973  0.6369956248555466  0.990333109875851  1.0000
  C   C9        1.0  0.7325012846757262  0.5262700150873598  0.6990470354044295  1.0000
  H   H1        1.0  0.6437426796522105  0.5667851592429274  0.355215784862307  1.0000
  H   H2        1.0  0.4894975073179775  0.521656120143908  0.7566950182772894  1.0000
  H   H3        1.0  0.8008142612970702  0.5216560388133243  0.7566949773784777  1.0000
  C   C10       1.0  0.14688602006555043  0.13959442334170813  0.40834402474490905  1.0000
  C   C11       1.0  0.16349037899281602  0.22179067710712763  0.2780291353962232  1.0000
  C   C12       1.0  0.1710048170542271  0.156008363367663  0.14770618950682968  1.0000
  C   C13       1.0  0.16202494641693774  0.005674907973987956  0.14436607797510015  1.0000
  C   C14       1.0  0.14712069404181177  0.922511295635876  0.2742282827825768  1.0000
  C   C15       1.0  0.1409448591044875  0.9868774968403589  0.40694006990235665  1.0000
  N   N3        1.0  0.16871610320509256  0.9348297546125771  0.011352485848808989  1.0000
  C   C16       1.0  0.18442425762885217  0.011345495160539622  0.8707078255295184  1.0000
  H   H4        1.0  0.16723957890447516  0.4040621275996594  0.6449646805040827  1.0000
  H   H5        1.0  0.16840974739921458  0.3384192112034199  0.2762609210164506  1.0000
  H   H6        1.0  0.18291896030238042  0.22364937401618734  0.04980718352925217  1.0000
  H   H7        1.0  0.14255783785591342  0.8060879049648295  0.2719546328725  1.0000
  H   H8        1.0  0.17742526035313588  0.8589617824130398  0.7579758843189222  1.0000
  H   H9        1.0  0.16189873482892603  0.8224919729230725  0.014341154013280505  1.0000
  H   H10       1.0  0.12450902939366995  0.08967321779595226  0.8456663893770084  1.0000
  H   H11       1.0  0.2543014932499044  0.068899525440278  0.8709404036407102  1.0000
  H   H12       1.0  0.1866308011040012  0.9330712493896053  0.7853841103772905  1.0000
  C   C17       1.0  0.14278865422063783  0.5590809187357395  0.9844077408011728  1.0000
  C   C18       1.0  0.05831466983324643  0.6016723444979744  0.054226007859548224  1.0000
  C   C19       1.0  0.978513385145498  0.6558578302668003  0.9749539789711732  1.0000
  C   C20       1.0  0.9813181667222964  0.6688931505551774  0.8236523775506637  1.0000
  C   C21       1.0  0.06450086519876552  0.6245600059347549  0.7526971105075377  1.0000
  C   C22       1.0  0.1450422123112003  0.5673909746905208  0.8308763769123798  1.0000
  C   C23       1.0  0.8978667946238744  0.7270459240770994  0.7381652987720893  1.0000
  O   O1        1.0  0.8219325314971875  0.7672418914929495  0.798804960537248  1.0000
  H   H13       1.0  0.37893237905182026  0.5223255201185357  0.09125724395881818  1.0000
  H   H14       1.0  0.9149381648054843  0.6888834692082146  0.032300899443562285  1.0000
  H   H15       1.0  0.06557051924193648  0.6315513187573012  0.6355288627501275  1.0000
  H   H16       1.0  0.30381202935151297  0.5374064157173086  0.5534602565441356  1.0000
  H   H17       1.0  0.9012335354679692  0.7358026823173669  0.6212812714915117  1.0000
  Zn  Zn1       1.0  0.03813199117899657  0.5632376824565304  0.4076441082328612  1.0000
  Zn  Zn2       1.0  0.2496896673655838  0.5632335547287644  0.4076392963229256  1.0000
  C   C24       1.0  0.1446544122953293  0.5600730044643747  0.6708851607837061  1.0000
  C   C25       1.0  0.14316954406535665  0.5664000543399113  0.1443983821625452  1.0000
  C   C26       1.0  0.14204762131957938  0.8266665903879722  0.4014621396618876  1.0000
  C   C27       1.0  0.14577627520954772  0.29980473589592593  0.41382148299752775  1.0000
  O   O2        1.0  0.22358245387977538  0.5688485628187976  0.19809088727039192  1.0000
  O   O3        1.0  0.22480889012193472  0.5576202707289792  0.6171885904653964  1.0000
  O   O4        1.0  0.22270279515080804  0.7728979776319822  0.3996275922359174  1.0000
  O   O5        1.0  0.22568847630052966  0.35357086517642367  0.41565177742028525  1.0000
  O   O6        1.0  0.06213311004976774  0.772900372011776  0.3996316271295599  1.0000
  O   O7        1.0  0.06423919265817003  0.5576243976320661  0.617192545639934  1.0000
  O   O8        1.0  0.06301275221940728  0.5688526224372803  0.19809310972230998  1.0000
  O   O9        1.0  0.06511877499625052  0.35357491553718234  0.41565410794584756  1.0000
