data_image0
_chemical_formula_structural       NC5NC3OH4C9H10C6NH7Zn2C4O8
_chemical_formula_sum              "N3 C27 O9 H21 Zn2"
_cell_length_a       13.84702359539666
_cell_length_b       10.297183801781406
_cell_length_c       9.274774538082514
_cell_angle_alpha    85.03689992379437
_cell_angle_beta     90.33539993850698
_cell_angle_gamma    89.99848952151973

_space_group_name_H-M_alt    "P 1"
_space_group_IT_number       1

loop_
  _space_group_symop_operation_xyz
  'x, y, z'

loop_
  _atom_site_type_symbol
  _atom_site_label
  _atom_site_symmetry_multiplicity
  _atom_site_fract_x
  _atom_site_fract_y
  _atom_site_fract_z
  _atom_site_occupancy
  N   N1        1.0  0.902821226127456  0.43421425776409395  0.40698036480412636  1.0000
  C   C1        1.0  0.8309354280617992  0.42590991455300764  0.47012177255554755  1.0000
  C   C2        1.0  0.7414106182448763  0.4155692535365415  0.5487461292973015  1.0000
  C   C3        1.0  0.653515762688398  0.42555899317454093  0.47278935683875223  1.0000
  C   C4        1.0  0.5659614615603467  0.41568532504850525  0.5478632186072119  1.0000
  C   C5        1.0  0.4757905154646992  0.42597053189337464  0.46966060237879453  1.0000
  N   N2        1.0  0.40330472972693576  0.4342390467381407  0.40679193345085674  1.0000
  C   C6        1.0  0.5662975867823467  0.39579212705345457  0.6991195198355411  1.0000
  C   C7        1.0  0.6538124923888626  0.3857930964822148  0.7751444113732784  1.0000
  C   C8        1.0  0.7416842079082094  0.3956031214788523  0.7005558567105625  1.0000
  O   O1        1.0  0.8289200200499075  0.3855870071079199  0.7767123209759264  1.0000
  H   H1        1.0  0.6532599420179627  0.44097063755319854  0.35560898971648824  1.0000
  H   H2        1.0  0.4989845669905507  0.3880210307572191  0.7582061038732986  1.0000
  H   H3        1.0  0.6532890114296924  0.37041201497924064  0.8920930697916412  1.0000
  H   H4        1.0  0.8308998323228768  0.3711917521850762  0.886164543698597  1.0000
  C   C9        1.0  0.15307180653278696  0.0527494861054818  0.407090623501128  1.0000
  C   C10       1.0  0.14963546067420944  0.06379990484408848  0.2552197977365005  1.0000
  C   C11       1.0  0.14787469682459525  0.9528448701089149  0.17741193260851018  1.0000
  C   C12       1.0  0.14962174001429762  0.8286334259445831  0.25463116905531535  1.0000
  C   C13       1.0  0.1530634395859376  0.815693720940959  0.4066940888423156  1.0000
  C   C14       1.0  0.1547650893910422  0.9282356600476419  0.4819311844239378  1.0000
  C   C15       1.0  0.14415777893736115  0.9742288730570818  0.013152910816234261  1.0000
  C   C16       1.0  0.0872816052811689  0.876138979438598  0.9328330908772671  1.0000
  C   C17       1.0  0.1972841886744232  0.8764885818469109  0.928206869505972  1.0000
  H   H5        1.0  0.15440511069420904  0.3760298597641727  0.46561132049733933  1.0000
  H   H6        1.0  0.148309044379215  0.1594883414983126  0.1965892799624478  1.0000
  H   H7        1.0  0.1483298151524857  0.7414805320171528  0.19762881029799195  1.0000
  H   H8        1.0  0.1574158183447656  0.9189825870504679  0.599102715862128  1.0000
  H   H9        1.0  0.15955101250726011  0.5840378111457163  0.6938981316991943  1.0000
  H   H10       1.0  0.14296398279828293  0.07535827548482321  0.9603571732963894  1.0000
  H   H11       1.0  0.05532470116669952  0.7919849885565857  0.998525043706497  1.0000
  H   H12       1.0  0.05279383436105367  0.9178107483595657  0.830734573102001  1.0000
  H   H13       1.0  0.2321479498918082  0.7925477494616432  0.9910893947026689  1.0000
  H   H14       1.0  0.2270880813014058  0.9183623211015868  0.8234031973037927  1.0000
  C   C18       1.0  0.15133444329657775  0.4375440518119894  0.9830749823923152  1.0000
  C   C19       1.0  0.21976299987840392  0.514207370741981  0.04974588006830482  1.0000
  C   C20       1.0  0.29252420731439543  0.5801700180008116  0.9689192811621705  1.0000
  C   C21       1.0  0.29744616164842475  0.5697685235765022  0.8199454182551946  1.0000
  C   C22       1.0  0.22932740712613578  0.4959669165806086  0.7515703540912995  1.0000
  C   C23       1.0  0.1548007774430218  0.4308991164376692  0.8307097568811534  1.0000
  N   N3        1.0  0.3620614247168825  0.6566526644174364  0.03859510038645797  1.0000
  H   H15       1.0  0.00698500183727702  0.18359370022028187  0.10918163627666488  1.0000
  H   H16       1.0  0.21802458049380619  0.5203683663227836  0.16576346212782922  1.0000
  H   H17       1.0  0.3536232879589157  0.6199617387390839  0.7563674064228141  1.0000
  H   H18       1.0  0.23363380177164797  0.49235364473901505  0.6353975607242424  1.0000
  H   H19       1.0  0.054610388464694015  0.26380918911884144  0.5647525434180789  1.0000
  H   H20       1.0  0.35925697483191  0.6647988780425649  0.1499618456807652  1.0000
  H   H21       1.0  0.4168446706694664  0.7058242543178734  0.9793068290521303  1.0000
  Zn  Zn1       1.0  0.04724998657109136  0.43421786842273735  0.40693431128243174  1.0000
  Zn  Zn2       1.0  0.2588759935069509  0.43422471440738913  0.40684977098102815  1.0000
  C   C24       1.0  0.1541434740837666  0.42698003306496424  0.6704913267073984  1.0000
  C   C25       1.0  0.15198481750496406  0.4414641878138996  0.14329289543521906  1.0000
  C   C26       1.0  0.15303651762360615  0.6715261021539691  0.4010178712567498  1.0000
  C   C27       1.0  0.1530917020837732  0.1969165573741245  0.41276642867111435  1.0000
  O   O2        1.0  0.2325140558267709  0.4427767519337497  0.19703141100267296  1.0000
  O   O3        1.0  0.23423347664558558  0.4256716881455238  0.6166882320594482  1.0000
  O   O4        1.0  0.23333851881133283  0.6231457198426333  0.39908650994415495  1.0000
  O   O5        1.0  0.23340894100477105  0.24530273037548156  0.4146330249289767  1.0000
  O   O6        1.0  0.07271696685567021  0.6231398524537826  0.399151057355741  1.0000
  O   O7        1.0  0.07361192435367347  0.4256673821065804  0.6167527017070449  1.0000
  O   O8        1.0  0.07189249650363516  0.442772414228781  0.19709414548053483  1.0000
  O   O9        1.0  0.07278738212028646  0.2452983825308097  0.4146958676170855  1.0000
