data_image0
_chemical_formula_structural       NC9NC3SH6C6NCOCH7C7ONH7Zn2C4O8
_chemical_formula_sum              "N4 C31 S1 H20 O10 Zn2"
_cell_length_a       16.77567553997237
_cell_length_b       10.300268703208216
_cell_length_c       10.297855452804892
_cell_angle_alpha    85.54105361020758
_cell_angle_beta     90.3897855956152
_cell_angle_gamma    90.87327597949842

_space_group_name_H-M_alt    "P 1"
_space_group_IT_number       1

loop_
  _space_group_symop_operation_xyz
  'x, y, z'

loop_
  _atom_site_type_symbol
  _atom_site_label
  _atom_site_symmetry_multiplicity
  _atom_site_fract_x
  _atom_site_fract_y
  _atom_site_fract_z
  _atom_site_occupancy
  N   N1        1.0  0.7505113485447474  0.4402327234868386  0.5742655739026534  1.0000
  C   C1        1.0  0.6957502255347822  0.4895468570907325  0.6158804374230388  1.0000
  C   C2        1.0  0.6277908733516208  0.5507424365620632  0.6675212991499032  1.0000
  C   C3        1.0  0.6299026682592568  0.6388020833861606  0.7626069740681038  1.0000
  C   C4        1.0  0.5542550743157206  0.6822646701350925  0.7941311057338541  1.0000
  C   C5        1.0  0.4922663497288055  0.6282404995019566  0.7234948265818206  1.0000
  C   C6        1.0  0.4057699576806944  0.6543010677555368  0.7343516368170644  1.0000
  C   C7        1.0  0.3489722458719033  0.574732433458275  0.6760421611059895  1.0000
  C   C8        1.0  0.2673260074436403  0.5987829235390869  0.6858418709637545  1.0000
  C   C9        1.0  0.2098614277516414  0.5165462017264848  0.6261364182312195  1.0000
  N   N2        1.0  0.1636769262536141  0.4504396621058258  0.5781420556754358  1.0000
  C   C10       1.0  0.2416476036175204  0.7027156159370209  0.7537899439230806  1.0000
  C   C11       1.0  0.2973536625998707  0.7824431706779528  0.8116377424038363  1.0000
  C   C12       1.0  0.378842157403569  0.7587558341625188  0.8021327380584887  1.0000
  S   S1        1.0  0.5328771689235415  0.5261848016116066  0.6223498927231625  1.0000
  H   H1        1.0  0.6842965921784121  0.6706494569912778  0.8083893970734615  1.0000
  H   H2        1.0  0.5459722945364311  0.7501424767170876  0.8676393037470247  1.0000
  H   H3        1.0  0.3677884427585805  0.4934520299366062  0.6235716786219481  1.0000
  H   H4        1.0  0.1786591708837841  0.7221714517554101  0.7618822498118947  1.0000
  H   H5        1.0  0.2773569525430779  0.8631121571569067  0.863790599288899  1.0000
  H   H6        1.0  0.4202672423722971  0.8233816132962943  0.8469097671938193  1.0000
  C   C13       1.0  0.9571789452740703  0.06399065191673971  0.5762123018294978  1.0000
  C   C14       1.0  0.9706303799108256  0.07375489696456562  0.44131551893184984  1.0000
  C   C15       1.0  0.9784960692544071  0.9614014951888425  0.3736286142689422  1.0000
  C   C16       1.0  0.9704500245401139  0.838590911553412  0.44134623123882866  1.0000
  C   C17       1.0  0.9570169455238271  0.8266719715963936  0.576206649873436  1.0000
  C   C18       1.0  0.9507524410720795  0.939983958519498  0.6430094360654219  1.0000
  N   N3        1.0  0.9910266943463015  0.9697775552585426  0.2351800111652469  1.0000
  C   C19       1.0  0.03783492492127771  0.07006528842785031  0.1658245382446146  1.0000
  O   O1        1.0  0.0828455375332513  0.14415230135218282  0.22622841404008717  1.0000
  C   C20       1.0  0.03787981984561007  0.08100178891065224  0.020317770407060724  1.0000
  H   H7        1.0  0.9734111774039509  0.1686907802769828  0.38849954767017425  1.0000
  H   H8        1.0  0.9754032928197613  0.752369099972314  0.3882229222077972  1.0000
  H   H9        1.0  0.9403994785275028  0.9316443083182062  0.7470571443557144  1.0000
  H   H10       1.0  0.9690716490704301  0.8938288638056627  0.1827835834496507  1.0000
  H   H11       1.0  0.976866194885288  0.06247193695744159  0.9829194353879267  1.0000
  H   H12       1.0  0.05764793458162787  0.18016294425417465  0.9826281573057984  1.0000
  H   H13       1.0  0.0790321960451037  0.008305059829178525  0.9849477650516393  1.0000
  C   C21       1.0  0.9571291986393302  0.4454611642622881  0.19476776442277655  1.0000
  C   C22       1.0  0.8755754938996758  0.47475346383625494  0.1906132994837368  1.0000
  C   C23       1.0  0.8340358949559685  0.488487807277443  0.07150671723582414  1.0000
  C   C24       1.0  0.8754786200542507  0.47445894250016313  0.9553794795816262  1.0000
  C   C25       1.0  0.9570666966874208  0.4452013973241624  0.9576511846963734  1.0000
  C   C26       1.0  0.9973097835384758  0.43059324314520153  0.0778003098860729  1.0000
  C   C27       1.0  0.7479587272556485  0.519736174850091  0.06969495776144874  1.0000
  O   O2        1.0  0.7184457244004867  0.5744189758660405  0.1632272774066812  1.0000
  N   N4        1.0  0.6969750148771069  0.4877691269828358  0.9645927341906061  1.0000
  H   H14       1.0  0.11132830508276516  0.3905657150166848  0.40985217581142575  1.0000
  H   H15       1.0  0.8440515837384642  0.4858143344398309  0.2804751678193824  1.0000
  H   H16       1.0  0.8448514421105392  0.48867642876585915  0.8627008246937424  1.0000
  H   H17       1.0  0.06016352932305269  0.40801409549965967  0.08024879056425438  1.0000
  H   H18       1.0  0.11156828120188167  0.3919566947436002  0.7545130687383259  1.0000
  H   H19       1.0  0.6374436684282624  0.5160443815511497  0.9629476222682717  1.0000
  H   H20       1.0  0.7159355103231808  0.42899326234022644  0.8930832948994119  1.0000
  Zn  Zn1       1.0  0.8697420123990002  0.4431747557981505  0.5753917518389605  1.0000
  Zn  Zn2       1.0  0.04444625881047104  0.4474870324576921  0.5770265449682438  1.0000
  C   C28       1.0  0.9570778372924369  0.44007712408873123  0.8134499176075091  1.0000
  C   C29       1.0  0.9571123413235232  0.45058634973321143  0.33896852453025716  1.0000
  C   C30       1.0  0.9570438984055234  0.6825106101664826  0.5710315313480281  1.0000
  C   C31       1.0  0.9571462209217889  0.20815130195305073  0.5813869794952791  1.0000
  O   O3        1.0  0.023406036091941265  0.4539372299194436  0.38798401242718644  1.0000
  O   O4        1.0  0.023380623407933235  0.4399981825723945  0.7656748259590075  1.0000
  O   O5        1.0  0.023352323469930658  0.6357662660496186  0.5699202555308436  1.0000
  O   O6        1.0  0.023434276421224306  0.25816915429354426  0.5837384849041807  1.0000
  O   O7        1.0  0.8907539351702621  0.6324926324921462  0.5686798113383166  1.0000
  O   O8        1.0  0.8907822347789282  0.43672610924717936  0.7644343124962324  1.0000
  O   O9        1.0  0.8908076476535002  0.4506651118740213  0.38674193726648376  1.0000
  O   O10       1.0  0.8908358879735179  0.2548970269266449  0.5824965071299408  1.0000
