data_image0
_chemical_formula_structural       NC5OC5NC4H8C9H8C9H10Zn2C4O8
_chemical_formula_sum              "N2 C36 O9 H26 Zn2"
_cell_length_a       19.189071930511275
_cell_length_b       9.275152443626249
_cell_length_c       10.297187173949778
_cell_angle_alpha    85.37052444745348
_cell_angle_beta     89.95213100257865
_cell_angle_gamma    90.56463589314393

_space_group_name_H-M_alt    "P 1"
_space_group_IT_number       1

loop_
  _space_group_symop_operation_xyz
  'x, y, z'

loop_
  _atom_site_type_symbol
  _atom_site_label
  _atom_site_symmetry_multiplicity
  _atom_site_fract_x
  _atom_site_fract_y
  _atom_site_fract_z
  _atom_site_occupancy
  N   N1        1.0  0.6642017393273806  0.5784245607413616  0.5618071593647831  1.0000
  C   C1        1.0  0.6099971378598852  0.6296509166032174  0.5433521437026191  1.0000
  C   C2        1.0  0.5425735940232362  0.6933679669444257  0.5203968801371559  1.0000
  C   C3        1.0  0.5334233508134036  0.8010190231973768  0.4186216158108108  1.0000
  C   C4        1.0  0.4679290162953267  0.8629931430235365  0.3964488994158142  1.0000
  C   C5        1.0  0.4109259212238567  0.8172010114283093  0.4746962141625575  1.0000
  O   O1        1.0  0.3462806754738261  0.8832088578748143  0.45024552962697095  1.0000
  C   C6        1.0  0.2809840020350018  0.8169903755449792  0.4741325315866929  1.0000
  C   C7        1.0  0.22463123806763596  0.9031819303755119  0.5041310498917468  1.0000
  C   C8        1.0  0.15852780293323188  0.8415250342188793  0.5271536398016897  1.0000
  C   C9        1.0  0.14811467465631836  0.6928741008195394  0.5190739785004996  1.0000
  C   C10       1.0  0.0800642552693246  0.6293788096772552  0.5426231682695126  1.0000
  N   N2        1.0  0.02535571935365401  0.5783308041337674  0.5615561099273562  1.0000
  C   C11       1.0  0.2039930060585508  0.6063398450338047  0.4871586937800788  1.0000
  C   C12       1.0  0.2700877826844433  0.6680405587340098  0.4641796130683409  1.0000
  C   C13       1.0  0.4205627915706331  0.7105528401519153  0.5780871149076692  1.0000
  C   C14       1.0  0.4860481760484179  0.6485741693464508  0.6003212377358536  1.0000
  H   H1        1.0  0.5768616029469901  0.837125871754532  0.3566037358944607  1.0000
  H   H2        1.0  0.46131631836681003  0.9463362820074018  0.3177019661791558  1.0000
  H   H3        1.0  0.23222146707600994  0.018235958744627457  0.5103507035007436  1.0000
  H   H4        1.0  0.11560324719370271  0.909696777691752  0.5510509340511391  1.0000
  H   H5        1.0  0.1963974620071977  0.49145573025534683  0.4793632936400421  1.0000
  H   H6        1.0  0.3123051805362078  0.6001001814648572  0.43686708032201205  1.0000
  H   H7        1.0  0.3778446045844724  0.6768649651935938  0.6425512677456577  1.0000
  H   H8        1.0  0.49267279065850966  0.5663951386712895  0.6801562833717534  1.0000
  C   C15       1.0  0.8427260032480061  0.15474612274250335  0.5630092301573082  1.0000
  C   C16       1.0  0.8176133142923712  0.23747695018214432  0.452670482603986  1.0000
  C   C17       1.0  0.7989788993693601  0.17202506824670105  0.3402610880530257  1.0000
  C   C18       1.0  0.805164689097556  0.022680937050293393  0.33596471505808334  1.0000
  C   C19       1.0  0.8289148717832588  0.9382621888202846  0.44537175688505415  1.0000
  C   C20       1.0  0.8468380944383809  0.0019982132269940056  0.5603652543269082  1.0000
  C   C21       1.0  0.7863123268036246  0.9555204018946214  0.21955740822056957  1.0000
  C   C22       1.0  0.7705278808953443  0.8992558145179401  0.12208453910648998  1.0000
  C   C23       1.0  0.7513765763380359  0.8309766898834741  0.0038183070056116973  1.0000
  H   H9        1.0  0.9427986486749412  0.2364070737050981  0.822364593591651  1.0000
  H   H10       1.0  0.8139424840946402  0.35399533284477985  0.4522644315634861  1.0000
  H   H11       1.0  0.7803671676651354  0.238258159268101  0.25614436930561046  1.0000
  H   H12       1.0  0.8318498271703579  0.8219509018149174  0.4417459944666009  1.0000
  H   H13       1.0  0.9119793748732371  0.7067061711418766  0.737757912864555  1.0000
  H   H14       1.0  0.7641132933242343  0.7142532149612341  0.015944883944179592  1.0000
  H   H15       1.0  0.6946612902886109  0.8435715408140474  0.9860745573670863  1.0000
  H   H16       1.0  0.7808264251686903  0.8833060847237484  0.9197156098884525  1.0000
  C   C24       1.0  0.844873921747261  0.5783199806501926  0.18023420399025092  1.0000
  C   C25       1.0  0.7744438597453893  0.617962227792936  0.1766777384115257  1.0000
  C   C26       1.0  0.7383604619412156  0.638271877499327  0.058239253254704026  1.0000
  C   C27       1.0  0.7741708355292719  0.618115347238191  0.941454726041316  1.0000
  C   C28       1.0  0.8446901773052881  0.5784243490604029  0.9431403162241933  1.0000
  C   C29       1.0  0.8795811961473413  0.5587844413334109  0.06291854686324783  1.0000
  C   C30       1.0  0.6621852721139893  0.6811475059307304  0.0638248524877214  1.0000
  C   C31       1.0  0.6131157268853344  0.6231360115717274  0.963767994771808  1.0000
  C   C32       1.0  0.634610640898946  0.7822828582476484  0.9521574367064565  1.0000
  H   H17       1.0  0.8720148229143521  0.5630576426872205  0.5091419925076545  1.0000
  H   H18       1.0  0.7472540470029895  0.6332666715907043  0.2667271046167161  1.0000
  H   H19       1.0  0.7477354882324265  0.6329914103700776  0.8488196523915748  1.0000
  H   H20       1.0  0.9339193281092267  0.5281988973373475  0.06493508985724428  1.0000
  H   H21       1.0  0.9778786242743255  0.5034407707050595  0.7391088323152077  1.0000
  H   H22       1.0  0.6377014328201006  0.6949296776650905  0.159876213003459  1.0000
  H   H23       1.0  0.6364000145817504  0.5580172456590597  0.8894297973184756  1.0000
  H   H24       1.0  0.5588589890945765  0.6036304017708407  0.998985139040645  1.0000
  H   H25       1.0  0.6709522544121845  0.8138369189494036  0.8707673888206227  1.0000
  H   H26       1.0  0.5929161144470214  0.8557920078648605  0.9805863029822168  1.0000
  Zn  Zn1       1.0  0.7684229649036016  0.5783936571601656  0.5617422196260606  1.0000
  Zn  Zn2       1.0  0.9211344515355021  0.5783499519858879  0.5616317070721094  1.0000
  C   C33       1.0  0.8446954548212002  0.5726575816071349  0.7989526577039152  1.0000
  C   C34       1.0  0.8448636380261518  0.5840878472877284  0.3244213896018735  1.0000
  C   C35       1.0  0.8460584769112032  0.8418487980118191  0.5556887375098789  1.0000
  C   C36       1.0  0.8435005553976711  0.314894897694759  0.5676853844962064  1.0000
  O   O2        1.0  0.9028133694839646  0.5860007165262398  0.37277000696095697  1.0000
  O   O3        1.0  0.9026502030218251  0.5707104528077831  0.7505197933410944  1.0000
  O   O4        1.0  0.9037500790349131  0.7880857648504573  0.554082452536266  1.0000
  O   O5        1.0  0.9017134414343355  0.36862541480490757  0.5692072503751404  1.0000
  O   O6        1.0  0.7878439228918419  0.7881181943576301  0.5541666763539046  1.0000
  O   O7        1.0  0.7867440553043051  0.5707446155197251  0.7506039424893112  1.0000
  O   O8        1.0  0.7869072219449629  0.5860348287534187  0.37285259452084585  1.0000
  O   O9        1.0  0.7858072938189483  0.36865951672722863  0.5692899353565493  1.0000
