data_image0
_chemical_formula_structural       NC5NC3OH4C6ClH5C9H8Zn2C4O8
_chemical_formula_sum              "N2 C27 O9 H17 Cl1 Zn2"
_cell_length_a       13.84702359539666
_cell_length_b       10.30297070629231
_cell_length_c       9.275155815604961
_cell_angle_alpha    86.05280978821669
_cell_angle_beta     90.34320021190106
_cell_angle_gamma    89.99918224466363

_space_group_name_H-M_alt    "P 1"
_space_group_IT_number       1

loop_
  _space_group_symop_operation_xyz
  'x, y, z'

loop_
  _atom_site_type_symbol
  _atom_site_label
  _atom_site_symmetry_multiplicity
  _atom_site_fract_x
  _atom_site_fract_y
  _atom_site_fract_z
  _atom_site_occupancy
  N   N1        1.0  0.9027006721247399  0.4085466013734549  0.4099239787701839  1.0000
  C   C1        1.0  0.8308201899162025  0.4012307974445219  0.472973907431252  1.0000
  C   C2        1.0  0.7413019994614164  0.39212107612499797  0.5514843534285276  1.0000
  C   C3        1.0  0.6534007491250611  0.4009216397041478  0.4756376268837967  1.0000
  C   C4        1.0  0.5658527684443482  0.3922233248524431  0.5506027218716383  1.0000
  C   C5        1.0  0.4756752384929219  0.4012841947447501  0.4725134053780224  1.0000
  N   N2        1.0  0.40318415986031014  0.4085684402701111  0.4097358204191055  1.0000
  C   C6        1.0  0.5662016278911802  0.3746981892895286  0.7016398834024423  1.0000
  C   C7        1.0  0.6537229340088234  0.3658894014437871  0.7775546301633551  1.0000
  C   C8        1.0  0.74158836994074  0.3745316710046834  0.7030741392653981  1.0000
  O   O1        1.0  0.828830593673079  0.36570785912542714  0.7791202682462522  1.0000
  H   H1        1.0  0.653135063074138  0.41449871301063457  0.35862703039815846  1.0000
  H   H2        1.0  0.49889358258157945  0.36785215014747275  0.7606408629447212  1.0000
  H   H3        1.0  0.653209298923632  0.35233926333842375  0.8943338536899847  1.0000
  H   H4        1.0  0.8308196206961036  0.35302618377245437  0.8884139168383083  1.0000
  C   C9        1.0  0.15294703777854912  0.027310116920988836  0.409836095057061  1.0000
  C   C10       1.0  0.2527829285152816  0.024386692958180408  0.43755856163973167  1.0000
  C   C11       1.0  0.3023188324156978  0.9059793233239799  0.4513136088894436  1.0000
  C   C12       1.0  0.2527829274609215  0.7892787237625629  0.4375584938582979  1.0000
  C   C13       1.0  0.15294704842972726  0.789795059373973  0.4098361775563188  1.0000
  C   C14       1.0  0.1035157578170629  0.9094041902778465  0.3961100471303398  1.0000
  Cl  Cl1       1.0  0.427037646031637  0.9038307864420781  0.4859454753154884  1.0000
  H   H5        1.0  0.11534060292757564  0.3557144315924927  0.39939272054174024  1.0000
  H   H6        1.0  0.2924900880413248  0.11374923974993534  0.4485843366008763  1.0000
  H   H7        1.0  0.29249004941770007  0.698548046117103  0.44858423306744544  1.0000
  H   H8        1.0  0.026519289032308047  0.9107304960684642  0.3747296031805645  1.0000
  H   H9        1.0  0.11534059935564933  0.46268646702642696  0.3993929926522629  1.0000
  C   C15       1.0  0.15117762031782855  0.405270886134633  0.9866055407965943  1.0000
  C   C16       1.0  0.07562974660835886  0.46852760023260065  0.05444882185534583  1.0000
  C   C17       1.0  0.006550334462791293  0.5404129381270254  0.9731900306280332  1.0000
  C   C18       1.0  0.011737718178212342  0.5505468594480531  0.8226062829027132  1.0000
  C   C19       1.0  0.08534221825954647  0.4865925239522018  0.7530553677959143  1.0000
  C   C20       1.0  0.1547164663347571  0.4118342141267606  0.8330666358577345  1.0000
  C   C21       1.0  0.9407062005736848  0.6254652388081698  0.739035607436366  1.0000
  C   C22       1.0  0.8812301007440118  0.6881991505601048  0.6690299285726198  1.0000
  C   C23       1.0  0.8090665484856562  0.7643161454047049  0.5840783970674703  1.0000
  H   H10       1.0  0.375331816855776  0.30053416576617703  0.09947909714594336  1.0000
  H   H11       1.0  0.0712910414732244  0.46492858086449046  0.1712419913103349  1.0000
  H   H12       1.0  0.9495612128293736  0.5892072906872334  0.02802449193169032  1.0000
  H   H13       1.0  0.08712655052383966  0.4926974765038307  0.6359084011579149  1.0000
  H   H14       1.0  0.30428091028896787  0.3366569011195976  0.5594280056596768  1.0000
  H   H15       1.0  0.828690859305001  0.7680471742370863  0.46807203001542547  1.0000
  H   H16       1.0  0.7371411775641685  0.7180817542285762  0.5991317223292212  1.0000
  H   H17       1.0  0.8066225077861027  0.8645636315897001  0.6205840465634673  1.0000
  Zn  Zn1       1.0  0.04712942866405356  0.40854949247302247  0.4098779907010109  1.0000
  Zn  Zn2       1.0  0.2587554284351743  0.4085550174359691  0.4097935706636919  1.0000
  C   C24       1.0  0.15404540866201916  0.40542160585482256  0.6730673998339108  1.0000
  C   C25       1.0  0.15184175997801663  0.4116845433090093  0.14660430206703157  1.0000
  C   C26       1.0  0.15291808085694153  0.6456246124672306  0.4040928877078313  1.0000
  C   C27       1.0  0.15296901589111456  0.1714799774849165  0.41557889106059076  1.0000
  O   O2        1.0  0.2323756153297101  0.413833458004067  0.20026931099169437  1.0000
  O   O3        1.0  0.23413078870972548  0.403275901851408  0.6193379031723033  1.0000
  O   O4        1.0  0.23321938088525587  0.5972428790643332  0.4021390820231294  1.0000
  O   O5        1.0  0.2332869504887738  0.21986648923860908  0.4174680241065003  1.0000
  O   O6        1.0  0.07259783439285483  0.597238020669852  0.40220353727943037  1.0000
  O   O7        1.0  0.07350924189170495  0.4032726026680801  0.619402281582353  1.0000
  O   O8        1.0  0.07175406133150396  0.4138301001433198  0.20033195661103595  1.0000
  O   O9        1.0  0.0726653969383746  0.21986312292986326  0.4175307777814379  1.0000
