data_image0
_chemical_formula_structural       NC9NC3OH6C6SCNH4C7NC2NH7Zn2C4O8
_chemical_formula_sum              "N5 C32 O9 H17 S1 Zn2"
_cell_length_a       15.78231758774541
_cell_length_b       10.302215558581764
_cell_length_c       9.27399911348925
_cell_angle_alpha    85.06957531056571
_cell_angle_beta     89.74395178918073
_cell_angle_gamma    89.65080806534476

_space_group_name_H-M_alt    "P 1"
_space_group_IT_number       1

loop_
  _space_group_symop_operation_xyz
  'x, y, z'

loop_
  _atom_site_type_symbol
  _atom_site_label
  _atom_site_symmetry_multiplicity
  _atom_site_fract_x
  _atom_site_fract_y
  _atom_site_fract_z
  _atom_site_occupancy
  N   N1        1.0  0.8036597388933512  0.4253138193628722  0.4108064191391675  1.0000
  C   C1        1.0  0.7550181495093887  0.3430624936982367  0.4375580574462233  1.0000
  C   C2        1.0  0.6946278401702666  0.24096860251740487  0.47076373254612447  1.0000
  C   C3        1.0  0.7141199183474537  0.11272291186495707  0.5123871572159314  1.0000
  C   C4        1.0  0.6373064169366358  0.05056938318849212  0.5326423527566345  1.0000
  C   C5        1.0  0.5756518021000716  0.14548551377625252  0.5018821327448502  1.0000
  C   C6        1.0  0.4825371661751248  0.1279361758700308  0.5076712143491287  1.0000
  C   C7        1.0  0.4289355773945018  0.23553693838771217  0.4726172365195189  1.0000
  C   C8        1.0  0.34070966804620373  0.2211468399247074  0.47737210289475174  1.0000
  C   C9        1.0  0.2864157891015718  0.33187837397875625  0.44128904648832146  1.0000
  N   N2        1.0  0.24277639107688934  0.4208922522162144  0.41228149353862875  1.0000
  C   C10       1.0  0.3054038388595293  0.09899581267849156  0.5172353782288033  1.0000
  C   C11       1.0  0.35807477515658676  0.9916174739173915  0.552221725328993  1.0000
  C   C12       1.0  0.4461144935383131  0.005612264326108054  0.5475960692029933  1.0000
  O   O1        1.0  0.6122599699056055  0.2579743117800772  0.46531895966988657  1.0000
  H   H1        1.0  0.7765230183493906  0.06947430531972573  0.5263675559670341  1.0000
  H   H2        1.0  0.6284383385456854  0.9483736096920291  0.5658278882028545  1.0000
  H   H3        1.0  0.4556680285164152  0.3305921376979113  0.4415912924903955  1.0000
  H   H4        1.0  0.237271105376641  0.08680816549497726  0.5212601439638123  1.0000
  H   H5        1.0  0.3306128748281465  0.8972121176066216  0.5830360306780884  1.0000
  H   H6        1.0  0.48508744439760776  0.9205609865214358  0.5753168887278118  1.0000
  C   C13       1.0  0.02313808508498028  0.04183194861548365  0.41150394082631886  1.0000
  C   C14       1.0  0.10789963694329158  0.036552713937479046  0.45720527031679703  1.0000
  C   C15       1.0  0.15007905275101785  0.9168812881564933  0.48040463929552374  1.0000
  C   C16       1.0  0.1081194492437616  0.8013743389901568  0.45732822169507514  1.0000
  C   C17       1.0  0.023306056336280568  0.8043639430206029  0.41159642264193597  1.0000
  C   C18       1.0  0.981271424312866  0.9251038741066216  0.38899126855236255  1.0000
  S   S1        1.0  0.2583729034041422  0.9116649780251851  0.5381501440001182  1.0000
  C   C19       1.0  0.2297798695955784  0.897677839595995  0.7230095529274636  1.0000
  N   N3        1.0  0.21100882498407725  0.8885087271699904  0.8442006210564943  1.0000
  H   H7        1.0  0.14147876051359998  0.12504826051455326  0.4752277213742134  1.0000
  H   H8        1.0  0.1418492447198939  0.709585961715014  0.4754350236524998  1.0000
  H   H9        1.0  0.9158997870464461  0.9283256133257872  0.3537648228395492  1.0000
  H   H10       1.0  0.8634696847079528  0.6027926269423615  0.3252488615130833  1.0000
  C   C20       1.0  0.02468618267904743  0.4264061354720738  0.9877041321457659  1.0000
  C   C21       1.0  0.09118506094042123  0.3635659863860786  0.06640454188986733  1.0000
  C   C22       1.0  0.1520731787811772  0.29153903795242575  0.9979482958436954  1.0000
  C   C23       1.0  0.1480987810840516  0.2798700794620079  0.8486371386714682  1.0000
  C   C24       1.0  0.08287559541093947  0.34488998572816726  0.7683826345710205  1.0000
  C   C25       1.0  0.02175798575588915  0.4197897883755237  0.8353962257192284  1.0000
  C   C26       1.0  0.2131079458957782  0.20156423523199546  0.7781505987160378  1.0000
  N   N4        1.0  0.28405195620130863  0.15548494707754035  0.8464222577419793  1.0000
  C   C27       1.0  0.32505523428974104  0.09010767386428298  0.7472291613623292  1.0000
  C   C28       1.0  0.27877391174300525  0.09704435180051108  0.6215323983418344  1.0000
  N   N5        1.0  0.2083670785639554  0.16708150862423515  0.6411373138372511  1.0000
  H   H11       1.0  0.9345283849225354  0.5911935807736795  0.25399822186771837  1.0000
  H   H12       1.0  0.09502412973471297  0.36739102221115116  0.18256905577201632  1.0000
  H   H13       1.0  0.20175217169280102  0.24320865356849428  0.06283713276959958  1.0000
  H   H14       1.0  0.0807789133139129  0.341398050175918  0.6522701717620789  1.0000
  H   H15       1.0  0.8895723072121188  0.4943996786231523  0.5491988882741793  1.0000
  H   H16       1.0  0.3849829611930027  0.040088527559556136  0.7657929519527131  1.0000
  H   H17       1.0  0.16043681136959875  0.18724384612940365  0.5652732792445425  1.0000
  Zn  Zn1       1.0  0.9303792860947078  0.4240343175073944  0.411240421421099  1.0000
  Zn  Zn2       1.0  0.11605677229156636  0.42216106523158786  0.41185928874362077  1.0000
  C   C29       1.0  0.0223084471051469  0.41586808547441434  0.6751636695672797  1.0000
  C   C30       1.0  0.024129638745075344  0.4303289139018888  0.14793618921797713  1.0000
  C   C31       1.0  0.023289835091456094  0.6602741235446217  0.4058273712789011  1.0000
  C   C32       1.0  0.02314818679053343  0.1859213159682973  0.41727256405639435  1.0000
  O   O2        1.0  0.09440649461415868  0.4309288804150391  0.2019463875457137  1.0000
  O   O3        1.0  0.09295650819432358  0.4138453875999859  0.6216227616135969  1.0000
  O   O4        1.0  0.09374803633687184  0.6112063521471807  0.4041317921445051  1.0000
  O   O5        1.0  0.09361490348833573  0.23356792663956913  0.4194372485844239  1.0000
  O   O6        1.0  0.9528210915353515  0.612627456740135  0.40366246136151546  1.0000
  O   O7        1.0  0.9520295639984495  0.41526805269704603  0.6211533540617884  1.0000
  O   O8        1.0  0.9534795564589807  0.4323515138115163  0.2014752446779462  1.0000
  O   O9        1.0  0.9526879649538458  0.2349905499050435  0.41896621392825756  1.0000
