data_image0
_chemical_formula_structural       NC5NC3OH4C6NH7C6NCH7Zn2C4O8
_chemical_formula_sum              "N4 C25 O9 H18 Zn2"
_cell_length_a       13.84702359539666
_cell_length_b       9.274771166103582
_cell_length_c       9.273390368590327
_cell_angle_alpha    86.06293122453995
_cell_angle_beta     89.97653543286326
_cell_angle_gamma    90.59789355945463

_space_group_name_H-M_alt    "P 1"
_space_group_IT_number       1

loop_
  _space_group_symop_operation_xyz
  'x, y, z'

loop_
  _atom_site_type_symbol
  _atom_site_label
  _atom_site_symmetry_multiplicity
  _atom_site_fract_x
  _atom_site_fract_y
  _atom_site_fract_z
  _atom_site_occupancy
  N   N1        1.0  0.9204482013435197  0.5617773876946959  0.4069891417971039  1.0000
  C   C1        1.0  0.8482414480044339  0.5537760241103216  0.47005608068298765  1.0000
  C   C2        1.0  0.7583169812149434  0.543812636129829  0.5485877080023835  1.0000
  C   C3        1.0  0.6708082223506292  0.5534378939710602  0.47272051894613143  1.0000
  C   C4        1.0  0.5828723120913881  0.5439244656805912  0.5477058386899682  1.0000
  C   C5        1.0  0.49309887931268187  0.5538344246216989  0.469595454463972  1.0000
  N   N2        1.0  0.4209326628127267  0.5618012732146  0.40680093266947637  1.0000
  C   C6        1.0  0.5824395835375982  0.5247570599593867  0.6987837485089279  1.0000
  C   C7        1.0  0.6695680436118316  0.5151228014046705  0.7747189768116736  1.0000
  C   C8        1.0  0.7578189028231426  0.5245749356299606  0.700218391521747  1.0000
  O   O1        1.0  0.8446676023493762  0.514924248973976  0.7762850370386132  1.0000
  H   H1        1.0  0.6711480442557444  0.5682872686845892  0.3556783539755688  1.0000
  H   H2        1.0  0.5148262192916939  0.5172694818040877  0.7578006459980984  1.0000
  H   H3        1.0  0.6684500985693769  0.5003028875103892  0.8915297062198877  1.0000
  H   H4        1.0  0.8460910550112625  0.5010541791783085  0.8856081721913537  1.0000
  C   C9        1.0  0.16773013456070252  0.1382009831325106  0.4076817168683735  1.0000
  C   C10       1.0  0.1455116515118864  0.22013886998483256  0.2788034471957741  1.0000
  C   C11       1.0  0.13230981676595932  0.15371035910242223  0.1491040562869419  1.0000
  C   C12       1.0  0.14137712330963104  0.003956506211650219  0.1473434552244357  1.0000
  C   C13       1.0  0.16180986981229672  0.9206802889576394  0.2744518711526154  1.0000
  C   C14       1.0  0.17365988854296233  0.9853667394719883  0.4061208301562149  1.0000
  N   N3        1.0  0.11068471488412368  0.23873271730151943  0.018809024713138497  1.0000
  H   H5        1.0  0.27640455060391633  0.2212188169790812  0.7230660687295218  1.0000
  H   H6        1.0  0.14064235635249744  0.3367254617505946  0.2782516475890857  1.0000
  H   H7        1.0  0.13167671747080914  0.9514082076466255  0.047552687403989324  1.0000
  H   H8        1.0  0.16606596086380826  0.8044726073996645  0.27032255188159215  1.0000
  H   H9        1.0  0.24294223776561544  0.6905845061213991  0.6206956076148658  1.0000
  H   H10       1.0  0.10403097959754715  0.350805803532817  0.018764715346750064  1.0000
  H   H11       1.0  0.1010751493801827  0.19022682162239235  0.9213884588529622  1.0000
  C   C15       1.0  0.17070828016720085  0.5572856896888418  0.9836637573933245  1.0000
  C   C16       1.0  0.2593853507080217  0.554423851317086  0.05723816477801825  1.0000
  C   C17       1.0  0.34660920046070975  0.5649710323605366  0.9817711733267203  1.0000
  C   C18       1.0  0.34737299199126825  0.5787709338283624  0.8301175071498594  1.0000
  C   C19       1.0  0.2592675221380498  0.5792001795631914  0.7557377585587508  1.0000
  C   C20       1.0  0.17068175160010246  0.5662820218060687  0.8301387495850605  1.0000
  N   N4        1.0  0.4362406968806307  0.5909790414763457  0.7492733585568541  1.0000
  C   C21       1.0  0.5315919230855419  0.5911535987386596  0.8162253816705642  1.0000
  H   H12       1.0  0.017795120621227456  0.48798945863253246  0.2696887481740653  1.0000
  H   H13       1.0  0.41313794315983426  0.5636468979793192  0.0428695981948517  1.0000
  H   H14       1.0  0.9448376493821696  0.454207686002569  0.7349387910074912  1.0000
  H   H15       1.0  0.4331741861989098  0.6005386657744605  0.6363810895080415  1.0000
  H   H16       1.0  0.5385071164247992  0.6836856710512276  0.8855210668022262  1.0000
  H   H17       1.0  0.5426500378648931  0.4880451023565835  0.8819648712798998  1.0000
  H   H18       1.0  0.5882628953725887  0.6020610529976576  0.731293437179036  1.0000
  Zn  Zn1       1.0  0.06487717684795213  0.5617805072980122  0.4069431463261559  1.0000
  Zn  Zn2       1.0  0.27650358026579425  0.5617864759112987  0.40685871225558823  1.0000
  C   C22       1.0  0.17064436922180584  0.5588350690296202  0.6701474469323672  1.0000
  C   C23       1.0  0.17073871158050635  0.5647337357714501  0.14365454883429152  1.0000
  C   C24       1.0  0.17253423636475468  0.8251733073034628  0.400672520124415  1.0000
  C   C25       1.0  0.16884876009145566  0.29839376527617295  0.4131295557041965  1.0000
  O   O2        1.0  0.25105999778995525  0.5672293401651984  0.19731688928096114  1.0000
  O   O3        1.0  0.25094261890112257  0.5563429020830388  0.6164206100960821  1.0000
  O   O4        1.0  0.25246762784040344  0.7714144136927861  0.39881769778730347  1.0000
  O   O5        1.0  0.24953491671253425  0.35215783772360143  0.4149196935345927  1.0000
  O   O6        1.0  0.09184576818351832  0.7714091454851624  0.3988821650683809  1.0000
  O   O7        1.0  0.09032077137264616  0.5563393660963023  0.6164849973364359  1.0000
  O   O8        1.0  0.09043815002822453  0.5672257354960955  0.19737954379484557  1.0000
  O   O9        1.0  0.08891306887124983  0.35215422388580064  0.41498245612485385  1.0000
