data_image0
_chemical_formula_structural       NC8Br2C7NH8C6H6C12H10Zn2C4O8
_chemical_formula_sum              "N2 C37 Br2 H24 Zn2 O8"
_cell_length_a       18.47481811020543
_cell_length_b       10.302888698854447
_cell_length_c       13.024585202197207
_cell_angle_alpha    85.80961696087208
_cell_angle_beta     93.98418679014542
_cell_angle_gamma    90.08311794336551

_space_group_name_H-M_alt    "P 1"
_space_group_IT_number       1

loop_
  _space_group_symop_operation_xyz
  'x, y, z'

loop_
  _atom_site_type_symbol
  _atom_site_label
  _atom_site_symmetry_multiplicity
  _atom_site_fract_x
  _atom_site_fract_y
  _atom_site_fract_z
  _atom_site_occupancy
  N   N1        1.0  0.6260980770859985  0.4162844395182128  0.8647246932117316  1.0000
  C   C1        1.0  0.5764921173297064  0.4236509407645914  0.913600426352541  1.0000
  C   C2        1.0  0.5147868761680784  0.4328133890756677  0.974395939369263  1.0000
  C   C3        1.0  0.514176705506448  0.3643608853779088  0.07104369170727387  1.0000
  C   C4        1.0  0.4543778008940327  0.3732284470362688  0.13037621505147146  1.0000
  C   C5        1.0  0.3932679500035102  0.44905630024769944  0.09300780501745987  1.0000
  C   C6        1.0  0.39581635882894567  0.5205689285206603  0.9966736377784315  1.0000
  C   C7        1.0  0.4556480288943941  0.5114546299643041  0.9375807604579358  1.0000
  C   C8        1.0  0.3280245261416793  0.4651399902057869  0.15724423347364558  1.0000
  Br  Br1       1.0  0.3212448121575273  0.3303859801210176  0.2696464485919394  1.0000
  Br  Br2       1.0  0.34348905747260067  0.6291808900990998  0.22165856010135535  1.0000
  C   C9        1.0  0.2563872374771151  0.4596615026778206  0.09130440822582876  1.0000
  C   C10       1.0  0.1976883839368609  0.5436203695798849  0.10300771414579601  1.0000
  C   C11       1.0  0.1320756414393091  0.5328811778099105  0.04397586825047861  1.0000
  C   C12       1.0  0.12326879601206768  0.4367856262057554  0.9737579639578542  1.0000
  C   C13       1.0  0.18009299899647846  0.35033830224097956  0.9634589953657182  1.0000
  C   C14       1.0  0.24571922532662266  0.36076598924662084  0.022340955310588776  1.0000
  C   C15       1.0  0.05560523585818241  0.425853860975113  0.9132465711275499  1.0000
  N   N2        1.0  0.0012092477362035967  0.4170656549060874  0.8645992551188022  1.0000
  H   H1        1.0  0.5602204919419483  0.3046788595045007  0.10098297751983054  1.0000
  H   H2        1.0  0.457016112420497  0.3210846671428904  0.20554112265004953  1.0000
  H   H3        1.0  0.3512345563691031  0.5838464284185834  0.9670727405460888  1.0000
  H   H4        1.0  0.4559055281361626  0.5663622274686233  0.8634146693922851  1.0000
  H   H5        1.0  0.20144170070112283  0.6173197304546723  0.15795914507583675  1.0000
  H   H6        1.0  0.08798002227275216  0.5991332350663701  0.05368748172285654  1.0000
  H   H7        1.0  0.1735821102670373  0.27434145302585544  0.910318587462766  1.0000
  H   H8        1.0  0.2884405408682741  0.29121431999741065  0.01407513470115896  1.0000
  C   C16       1.0  0.8135842542924784  0.0354275399454631  0.8646326331962677  1.0000
  C   C17       1.0  0.8874163630001125  0.03140995790228972  0.8987593655401762  1.0000
  C   C18       1.0  0.9240493181975998  0.9125373372773249  0.9156917358272973  1.0000
  C   C19       1.0  0.8876076327706883  0.7963952611105614  0.8988476704839443  1.0000
  C   C20       1.0  0.8137304189512209  0.7979126176514207  0.864700176381342  1.0000
  C   C21       1.0  0.7771057188856413  0.9180045885886118  0.8477715245805924  1.0000
  H   H9        1.0  0.7856107798072219  0.36424485201410395  0.8517015136006278  1.0000
  H   H10       1.0  0.9169504919854743  0.12005946771057172  0.9124106599674381  1.0000
  H   H11       1.0  0.9809478325797922  0.9104126560151921  0.941991171074056  1.0000
  H   H12       1.0  0.9172722961449901  0.7055044624917587  0.9125591061979065  1.0000
  H   H13       1.0  0.7201761934440581  0.9201732916535881  0.8214576637388562  1.0000
  H   H14       1.0  0.6745800264849693  0.593606771728722  0.8003812636486184  1.0000
  C   C22       1.0  0.7988211183832503  0.4150810125741133  0.5624523488864531  1.0000
  C   C23       1.0  0.7828396918923181  0.5187919446266449  0.48803710117620136  1.0000
  C   C24       1.0  0.8075693155615729  0.5168557644249883  0.38914855424869876  1.0000
  C   C25       1.0  0.8482210489466586  0.4108605676251611  0.3626783110578302  1.0000
  C   C26       1.0  0.8648901709918109  0.3078897670739022  0.43702020827450155  1.0000
  C   C27       1.0  0.8401969654068147  0.309717070703234  0.5359519970492006  1.0000
  C   C28       1.0  0.8754408155847323  0.40971904375738544  0.25846902929328186  1.0000
  C   C29       1.0  0.9509285958148843  0.40564354349656484  0.2507611933971572  1.0000
  C   C30       1.0  0.9800262917413632  0.4125886380372583  0.15452774270832942  1.0000
  C   C31       1.0  0.9342477484439646  0.42396715909885874  0.06469548508351108  1.0000
  C   C32       1.0  0.8591316341438079  0.4268295681354262  0.070660464056993  1.0000
  C   C33       1.0  0.828493530350173  0.4182591458445404  0.16688043518821405  1.0000
  H   H15       1.0  0.7713439186607445  0.3136509765607336  0.8123949744960872  1.0000
  H   H16       1.0  0.751359157695622  0.6016023318272614  0.5062377637219095  1.0000
  H   H17       1.0  0.7951243122397975  0.598105622468504  0.333162512037938  1.0000
  H   H18       1.0  0.8966742956616832  0.22575083727433423  0.4181381423147991  1.0000
  H   H19       1.0  0.8535776153320696  0.2286070199463499  0.5916195920869278  1.0000
  H   H20       1.0  0.9874939918526473  0.3993846485268413  0.3196952511841473  1.0000
  H   H21       1.0  0.03824851754441316  0.4101344917259096  0.14962684334169918  1.0000
  H   H22       1.0  0.9569885897686154  0.429739580525609  0.9901214403038516  1.0000
  H   H23       1.0  0.8248591606327796  0.4333722231453774  0.9995396850655999  1.0000
  H   H24       1.0  0.6503108041641563  0.46313532602822266  0.08240951723989198  1.0000
  Zn  Zn1       1.0  0.7343473493544171  0.4165064349039178  0.86469442792524  1.0000
  Zn  Zn2       1.0  0.8929603743321936  0.4168330733365553  0.8646379170509823  1.0000
  C   C34       1.0  0.8228822250202408  0.4124863681921189  0.052630152417949445  1.0000
  C   C35       1.0  0.8044272359884633  0.4208547822443629  0.6767022930965052  1.0000
  C   C36       1.0  0.8134977410971221  0.6537651295313043  0.8605863743893045  1.0000
  C   C37       1.0  0.8138116681825867  0.1795744612762844  0.8687461258740854  1.0000
  O   O1        1.0  0.8665015155438494  0.42291080573462664  0.7150241719754808  1.0000
  O   O2        1.0  0.8811915466360991  0.4106772747459568  0.014265086753630477  1.0000
  O   O3        1.0  0.8736126982904703  0.6055129298694213  0.8591883776626008  1.0000
  O   O4        1.0  0.8740803059792553  0.22807515938123288  0.870100803922505  1.0000
  O   O5        1.0  0.7532273635802489  0.6052643487491594  0.8592315410675889  1.0000
  O   O6        1.0  0.7608062095277673  0.41043025314450715  0.014308195423554881  1.0000
  O   O7        1.0  0.7461161177325278  0.422663732385777  0.7150660433165199  1.0000
  O   O8        1.0  0.7536949119510503  0.22782807715223208  0.8701427524214213  1.0000
