data_image0
_chemical_formula_structural       NC5OC5NC4H8C6ClH5C7ONH5Zn2C4O8
_chemical_formula_sum              "N3 C31 O10 H18 Cl1 Zn2"
_cell_length_a       19.189071930511275
_cell_length_b       10.30297070629231
_cell_length_c       9.27304215883966
_cell_angle_alpha    86.1623812568413
_cell_angle_beta     90.07135709723086
_cell_angle_gamma    89.98947815314023

_space_group_name_H-M_alt    "P 1"
_space_group_IT_number       1

loop_
  _space_group_symop_operation_xyz
  'x, y, z'

loop_
  _atom_site_type_symbol
  _atom_site_label
  _atom_site_symmetry_multiplicity
  _atom_site_fract_x
  _atom_site_fract_y
  _atom_site_fract_z
  _atom_site_occupancy
  N   N1        1.0  0.6549427378881958  0.40560454697417736  0.40963115620522306  1.0000
  C   C1        1.0  0.6004691126153072  0.4515155453573159  0.3893306511001564  1.0000
  C   C2        1.0  0.5327109476609385  0.5086211736326149  0.36407987337981185  1.0000
  C   C3        1.0  0.5229251130792603  0.6044472903505684  0.25152169389140555  1.0000
  C   C4        1.0  0.45710548316784066  0.6599924458146851  0.22713320379805313  1.0000
  C   C5        1.0  0.40041173152387083  0.6195937226555992  0.31379871279307725  1.0000
  O   O1        1.0  0.335419086885053  0.6787454828000667  0.2868965320006849  1.0000
  C   C6        1.0  0.27047020533433613  0.6193982942376155  0.31317251509407984  1.0000
  C   C7        1.0  0.2137328699390981  0.6972810698604199  0.34675765337837405  1.0000
  C   C8        1.0  0.1479541393907539  0.6420302450781428  0.3720902708376397  1.0000
  C   C9        1.0  0.13825294832487015  0.5081629504290524  0.362610257194376  1.0000
  C   C10       1.0  0.0705367368340471  0.4512630757611849  0.38852082978934877  1.0000
  N   N2        1.0  0.016096892678872102  0.4055175578627932  0.4093522643620966  1.0000
  C   C11       1.0  0.1945153758179461  0.4299518242011733  0.3268970673324163  1.0000
  C   C12       1.0  0.2602852838633854  0.48524253632130643  0.30161287988068697  1.0000
  C   C13       1.0  0.4106811309374104  0.5246869805220649  0.42815309275091423  1.0000
  C   C14       1.0  0.4764919013556644  0.46913836759997096  0.4526097043332011  1.0000
  H   H1        1.0  0.5661190924251192  0.6362981358740081  0.18283100547029107  1.0000
  H   H2        1.0  0.45000076483835394  0.7341812410297599  0.1400433405052257  1.0000
  H   H3        1.0  0.22077203032870224  0.8008923877872846  0.35405744625262103  1.0000
  H   H4        1.0  0.1047256035260468  0.7036320732139043  0.39884302722825726  1.0000
  H   H5        1.0  0.1874683191786303  0.3264770450574652  0.31784939729104034  1.0000
  H   H6        1.0  0.3028017313489774  0.42381343097818175  0.27107133877880885  1.0000
  H   H7        1.0  0.3681982127545725  0.4950385999921792  0.49956656844733377  1.0000
  H   H8        1.0  0.4836041038898814  0.3960085613824915  0.5409109799611327  1.0000
  C   C15       1.0  0.8355231539756093  0.02431367934544104  0.40949791628232246  1.0000
  C   C16       1.0  0.9075038991857058  0.021416502850563297  0.43720454404601017  1.0000
  C   C17       1.0  0.9432188236832355  0.9030221563354771  0.45095173248837556  1.0000
  C   C18       1.0  0.9075038985759901  0.7863085335381005  0.43720447625925835  1.0000
  C   C19       1.0  0.835523161477669  0.7867986219386119  0.40949799878635557  1.0000
  C   C20       1.0  0.7998836624788136  0.9063947569984512  0.39577971056022965  1.0000
  Cl  Cl1       1.0  0.03313992421773971  0.9009064086230755  0.48556381244781427  1.0000
  H   H9        1.0  0.80840926731725  0.35270810566251987  0.3990605079077347  1.0000
  H   H10       1.0  0.9361323907960764  0.11078948868459815  0.4482240195139535  1.0000
  H   H11       1.0  0.9361323631557222  0.6955882948813097  0.448223915979107  1.0000
  H   H12       1.0  0.7443699273613773  0.9077008198823783  0.3744114819853772  1.0000
  H   H13       1.0  0.8084092641330347  0.459680141567226  0.39906078004102197  1.0000
  C   C21       1.0  0.8351899300943388  0.40154381514088205  0.9862332835938726  1.0000
  C   C22       1.0  0.7711834475155043  0.4098264673535257  0.058963522894039715  1.0000
  C   C23       1.0  0.7084354009856496  0.4306665761329034  0.9827558217235819  1.0000
  C   C24       1.0  0.7100801873326349  0.441655812626331  0.8312558514937024  1.0000
  C   C25       1.0  0.7729458330136436  0.4314673091048309  0.7575170625285533  1.0000
  C   C26       1.0  0.8358564212004315  0.4095684158199758  0.832762607865547  1.0000
  C   C27       1.0  0.6418430076922369  0.43964513140295436  0.06266727107953862  1.0000
  O   O2        1.0  0.6371873589857846  0.3894057941363269  0.1900414865550586  1.0000
  N   N3        1.0  0.5825660387587858  0.5055240373128314  0.999176590296888  1.0000
  H   H14       1.0  0.004266018509214044  0.4510931791450499  0.08606276563431692  1.0000
  H   H15       1.0  0.6626906402786807  0.4545036235291309  0.7686693176009083  1.0000
  H   H16       1.0  0.9498191725136398  0.43691866899774934  0.5497528129175189  1.0000
  H   H17       1.0  0.5859221055680016  0.5615859923756215  0.9015081722368045  1.0000
  H   H18       1.0  0.5354645125770714  0.505389249445781  0.055455427713551275  1.0000
  Zn  Zn1       1.0  0.7591640409294673  0.4055760592025773  0.40955899135349383  1.0000
  Zn  Zn2       1.0  0.9118756162943841  0.4055355764670734  0.40943621408117703  1.0000
  C   C28       1.0  0.8357288671522897  0.40287959148079944  0.6727504167701661  1.0000
  C   C29       1.0  0.8353124577886426  0.40823368318549086  0.14624492879327472  1.0000
  C   C30       1.0  0.8355150630288584  0.642618261322053  0.4037542473876563  1.0000
  C   C31       1.0  0.8355262098627412  0.16849345428090073  0.41524117506253977  1.0000
  O   O3        1.0  0.8933068261899122  0.41045783709002515  0.19989970531141288  1.0000
  O   O4        1.0  0.8936390506209773  0.40062372877310914  0.6190020402278398  1.0000
  O   O5        1.0  0.8934656210298388  0.5942157509934363  0.4017857308870997  1.0000
  O   O6        1.0  0.8934802035858498  0.21686582314631297  0.41711590662217235  1.0000
  O   O7        1.0  0.7775594015250299  0.594245812538494  0.40187929884681495  1.0000
  O   O8        1.0  0.7777328310525288  0.4006553493966605  0.6190955313351172  1.0000
  O   O9        1.0  0.7774006053034801  0.41048939604478313  0.1999914634884465  1.0000
  O   O10       1.0  0.7775739827816466  0.2168973738396125  0.4172077728635035  1.0000
