data_image0
_chemical_formula_structural       NC5OC5NC4H8C6NCH9C6ClH5Zn2C4O8
_chemical_formula_sum              "N3 C31 O9 H22 Cl1 Zn2"
_cell_length_a       19.189071930511275
_cell_length_b       9.273386996610926
_cell_length_c       10.302974078461048
_cell_angle_alpha    85.46621229036245
_cell_angle_beta     89.9779158844828
_cell_angle_gamma    89.38971707573329

_space_group_name_H-M_alt    "P 1"
_space_group_IT_number       1

loop_
  _space_group_symop_operation_xyz
  'x, y, z'

loop_
  _atom_site_type_symbol
  _atom_site_label
  _atom_site_symmetry_multiplicity
  _atom_site_fract_x
  _atom_site_fract_y
  _atom_site_fract_z
  _atom_site_occupancy
  N   N1        1.0  0.648209245781883  0.5787062373662812  0.5651737394165885  1.0000
  C   C1        1.0  0.5934924571068131  0.629937873513644  0.5468123992856455  1.0000
  C   C2        1.0  0.5254318376622087  0.6936614916910853  0.5239736526362946  1.0000
  C   C3        1.0  0.5151899877723193  0.8013322633842708  0.42243003112403193  1.0000
  C   C4        1.0  0.4490760418050093  0.8633127502319726  0.40037055902877733  1.0000
  C   C5        1.0  0.3925457554599647  0.817507449454216  0.4785000359141831  1.0000
  O   O1        1.0  0.3272403672521109  0.8835221915579852  0.4541704274388772  1.0000
  C   C6        1.0  0.26260578741492674  0.8172968793687869  0.477936321339485  1.0000
  C   C7        1.0  0.20540602253355386  0.9034889653206631  0.5080587413781261  1.0000
  C   C8        1.0  0.1399192606003757  0.8418256029187864  0.530968134654092  1.0000
  C   C9        1.0  0.13097749272580364  0.6931677800121689  0.5226506766733023  1.0000
  C   C10       1.0  0.06356209488184181  0.6296658516958754  0.5460833829516907  1.0000
  N   N2        1.0  0.009364094250423496  0.57861251006631  0.5649226758175026  1.0000
  C   C11       1.0  0.1877057574039361  0.6066332369377383  0.4906119901934398  1.0000
  C   C12       1.0  0.2531834370795515  0.6683404132866528  0.467746153499033  1.0000
  C   C13       1.0  0.403264683940183  0.7108393956147356  0.5816600360721853  1.0000
  C   C14       1.0  0.4693697398455538  0.6488543491409333  0.6037808732739174  1.0000
  H   H1        1.0  0.5582553552032247  0.8374495395955519  0.3605052425986168  1.0000
  H   H2        1.0  0.4416182365436935  0.9466711463970318  0.32180293693811546  1.0000
  H   H3        1.0  0.21185742813640335  0.01854833072459971  0.5144624654711454  1.0000
  H   H4        1.0  0.0963248251912013  0.909997743147317  0.5549633327303349  1.0000
  H   H5        1.0  0.1812469710605512  0.49174400986693495  0.4826336666400719  1.0000
  H   H6        1.0  0.2960675943119441  0.6004001190007091  0.4403379799527183  1.0000
  H   H7        1.0  0.3608959990724556  0.6771408883890522  0.6460336888701406  1.0000
  H   H8        1.0  0.4768281875517151  0.5666599750121994  0.6834379040484442  1.0000
  C   C15       1.0  0.830932985771867  0.15500484783621116  0.5656846719169459  1.0000
  C   C16       1.0  0.8431692028819895  0.2384772840516198  0.44829065327532264  1.0000
  C   C17       1.0  0.8488439201289145  0.17397293384314794  0.33089393997531324  1.0000
  C   C18       1.0  0.8423682630818436  0.02367394945724954  0.32788972526314564  1.0000
  C   C19       1.0  0.831360129626972  0.9392382803123569  0.4448751191629976  1.0000
  C   C20       1.0  0.8266470856513182  0.0023028162725529104  0.5644229926752877  1.0000
  N   N3        1.0  0.8474538696526009  0.9541333276485982  0.2080697317005984  1.0000
  C   C21       1.0  0.8590630177869693  0.03202682503368526  0.08137126120402893  1.0000
  H   H9        1.0  0.8451703626140277  0.41714585397903453  0.7788187690444164  1.0000
  H   H10       1.0  0.8467236233173263  0.3551222554759301  0.446695403260873  1.0000
  H   H11       1.0  0.857632230454213  0.24257278085258327  0.2427020137189606  1.0000
  H   H12       1.0  0.828070823524629  0.8228380642370349  0.44282933991875534  1.0000
  H   H13       1.0  0.8523056608554068  0.8709341791692595  0.8806124422090024  1.0000
  H   H14       1.0  0.842527041646983  0.8417674829085463  0.21076530072629795  1.0000
  H   H15       1.0  0.8158616255045514  0.11061159604513125  0.05884438725586417  1.0000
  H   H16       1.0  0.9095031148698807  0.08956548834595689  0.08154569020562863  1.0000
  H   H17       1.0  0.8608197768620691  0.9545897825865405  0.0045118395995369385  1.0000
  C   C22       1.0  0.8287900489957061  0.5786538609391594  0.1838113261783061  1.0000
  C   C23       1.0  0.8174259929093672  0.42881562263358686  0.19327655006658562  1.0000
  C   C24       1.0  0.8117874940014478  0.35446996992405033  0.0810161447875617  1.0000
  C   C25       1.0  0.8174260236648822  0.4288157041019051  0.9581686509524858  1.0000
  C   C26       1.0  0.8287900475948426  0.5786537864697936  0.9462963453638547  1.0000
  C   C27       1.0  0.834416693317109  0.6528425383648042  0.05977147565333363  1.0000
  Cl  Cl1       1.0  0.7975910905060999  0.1672864138958232  0.09434400078936989  1.0000
  H   H18       1.0  0.83307109460615  0.6350953389992329  0.5075488785183164  1.0000
  H   H19       1.0  0.8129062519087412  0.36922145622908253  0.28756632034817464  1.0000
  H   H20       1.0  0.8129063007099704  0.3692214356305328  0.872365354271068  1.0000
  H   H21       1.0  0.8431809631972023  0.7684022850994288  0.05154328588704615  1.0000
  H   H22       1.0  0.833070962065134  0.6350953262668793  0.6145212481481384  1.0000
  Zn  Zn1       1.0  0.7524307619231769  0.5786753410084484  0.5651087851749641  1.0000
  Zn  Zn2       1.0  0.9051426549624133  0.5786316486045833  0.564998262421444  1.0000
  C   C28       1.0  0.8288175551417256  0.5729065002752016  0.8021788825244232  1.0000
  C   C29       1.0  0.8287575201453293  0.5844023091680108  0.32792828857867073  1.0000
  C   C30       1.0  0.8274536367805652  0.8421454797676824  0.5594880023263549  1.0000
  C   C31       1.0  0.8301213951641749  0.3151615963838068  0.5706192406111847  1.0000
  O   O2        1.0  0.8867000025463361  0.5863086659163014  0.3762533242482504  1.0000
  O   O3        1.0  0.8867798715500421  0.5709658936506818  0.7537695905407951  1.0000
  O   O4        1.0  0.8856777089851671  0.7883797748059338  0.5577949860342712  1.0000
  O   O5        1.0  0.8878021129487854  0.3688947950962722  0.572227831434732  1.0000
  O   O6        1.0  0.769771251823723  0.788412194533241  0.5578792161925612  1.0000
  O   O7        1.0  0.7708734056178308  0.5710000466861929  0.753853748895525  1.0000
  O   O8        1.0  0.7707935369147983  0.5863427686780015  0.37633592179471886  1.0000
  O   O9        1.0  0.7718956473665913  0.36892888753922976  0.5723105263321278  1.0000
