data_image0
_chemical_formula_structural       NC9NC3OH6C7F3H5C7NH3Zn2C4O8
_chemical_formula_sum              "N3 C30 O9 H14 F3 Zn2"
_cell_length_a       15.78231758774541
_cell_length_b       9.27228830945605
_cell_length_c       10.302823150593486
_cell_angle_alpha    85.26210332699969
_cell_angle_beta     90.08385050025007
_cell_angle_gamma    89.05832516092083

_space_group_name_H-M_alt    "P 1"
_space_group_IT_number       1

loop_
  _space_group_symop_operation_xyz
  'x, y, z'

loop_
  _atom_site_type_symbol
  _atom_site_label
  _atom_site_symmetry_multiplicity
  _atom_site_fract_x
  _atom_site_fract_y
  _atom_site_fract_z
  _atom_site_occupancy
  N   N1        1.0  0.7886179993542751  0.5707064170148143  0.5629491341136785  1.0000
  C   C1        1.0  0.7406234795213626  0.4795012293785615  0.5874520928323346  1.0000
  C   C2        1.0  0.6810363421246218  0.36629342209728516  0.6178665708372766  1.0000
  C   C3        1.0  0.701537028834691  0.2240861730115693  0.6559926720192797  1.0000
  C   C4        1.0  0.62521262480549  0.15516697326749718  0.6745446005232294  1.0000
  C   C5        1.0  0.5628116826962979  0.2604166130639247  0.6463681892602048  1.0000
  C   C6        1.0  0.4698353835703323  0.24095756325643738  0.6516693140666867  1.0000
  C   C7        1.0  0.4153871057189807  0.3602712221260496  0.6195628409420927  1.0000
  C   C8        1.0  0.32727465671940426  0.3443152678030974  0.6239167946101064  1.0000
  C   C9        1.0  0.2721094221880639  0.4671004194715492  0.5908679231918994  1.0000
  N   N2        1.0  0.2277695617489234  0.5658038399741661  0.5642996073246713  1.0000
  C   C10       1.0  0.2929302449305626  0.20886807296741464  0.6604270386277018  1.0000
  C   C11       1.0  0.34644613651949435  0.08980109173360361  0.692471488229683  1.0000
  C   C12       1.0  0.4343755066074387  0.10531871039713601  0.6882358731631137  1.0000
  O   O1        1.0  0.5985349815232611  0.38515111730085516  0.6128780513375355  1.0000
  H   H1        1.0  0.7642800726040335  0.176128787007555  0.6687993276036385  1.0000
  H   H2        1.0  0.6171483386431549  0.041845730517926734  0.7049415101649436  1.0000
  H   H3        1.0  0.44137138550576116  0.46567315646787916  0.5911466772082783  1.0000
  H   H4        1.0  0.22489359831826933  0.19535420883036797  0.6641124892204591  1.0000
  H   H5        1.0  0.3197272942648502  0.9851197397160323  0.7206938077814637  1.0000
  H   H6        1.0  0.4740177532340564  0.011009276163735045  0.7136255811985289  1.0000
  C   C13       1.0  0.01069130878670354  0.14440263443673512  0.5656329410467299  1.0000
  C   C14       1.0  0.05095252682671235  0.2259628734209811  0.463212222600329  1.0000
  C   C15       1.0  0.08284545592488302  0.15999060724828998  0.35623924936542384  1.0000
  C   C16       1.0  0.07416697083802526  0.01088280026656397  0.34791383755631333  1.0000
  C   C17       1.0  0.03699678649275385  0.9276056013470053  0.45199662983695993  1.0000
  C   C18       1.0  0.005704424034077783  0.9920964646272081  0.5616271095620327  1.0000
  C   C19       1.0  0.11079355298153842  0.9389326862770196  0.2339875004423639  1.0000
  F   F1        1.0  0.11005972137855607  0.03354087789449923  0.12276795151277307  1.0000
  F   F2        1.0  0.06413192513196209  0.8191005135956732  0.2090956560019268  1.0000
  F   F3        1.0  0.19342469543003563  0.8954528919569834  0.26235657796147205  1.0000
  H   H7        1.0  0.8682284560167403  0.22856963292718002  0.7987205690135126  1.0000
  H   H8        1.0  0.05629751020463233  0.34216747231750255  0.4645720621387799  1.0000
  H   H9        1.0  0.11372075541821114  0.2261232274956946  0.2792931202622286  1.0000
  H   H10       1.0  0.034289171594211076  0.8111970156398075  0.44906897323535894  1.0000
  H   H11       1.0  0.9662407538919429  0.8628496073042781  0.875926313792969  1.0000
  C   C20       1.0  0.008197866555648579  0.5682495593125518  0.1823819362329362  1.0000
  C   C21       1.0  0.9193388250792423  0.579702323652241  0.18022997778596261  1.0000
  C   C22       1.0  0.8751306150403213  0.5854000633840306  0.062056850984791405  1.0000
  C   C23       1.0  0.9193388091564821  0.5797022295883794  0.9449289843321225  1.0000
  C   C24       1.0  0.008197866093799348  0.5682495518197308  0.9448781028817418  1.0000
  C   C25       1.0  0.05216310759307463  0.5625829758475482  0.06414977481569806  1.0000
  C   C26       1.0  0.7840371016250104  0.5971405915809065  0.06097987487957667  1.0000
  N   N3        1.0  0.7108276796711057  0.6065763167092044  0.06011430246553417  1.0000
  H   H12       1.0  0.8842939503101093  0.5842191467494292  0.27023991120843566  1.0000
  H   H13       1.0  0.8842939845426244  0.5842190401020417  0.8540903753162437  1.0000
  H   H14       1.0  0.12068799949581649  0.5537510411212045  0.06495994455264009  1.0000
  Zn  Zn1       1.0  0.9153476731012301  0.5692877837699086  0.5633463608218556  1.0000
  Zn  Zn2       1.0  0.10103992881103058  0.5672106929937548  0.563913049240349  1.0000
  C   C27       1.0  0.008229784009060603  0.5624995359562424  0.8007771579766216  1.0000
  C   C28       1.0  0.008159834943148423  0.5740007392833333  0.32648237709382166  1.0000
  C   C29       1.0  0.006642672443267546  0.8318643201137799  0.557210733788934  1.0000
  C   C30       1.0  0.009746893346801679  0.30463422171819393  0.5700488784995528  1.0000
  O   O2        1.0  0.07861635152915597  0.5751363458037373  0.37505888647853997  1.0000
  O   O3        1.0  0.07870939928615249  0.5597863767362399  0.752630383407192  1.0000
  O   O4        1.0  0.07742683666586436  0.7773018571519472  0.5559487626116035  1.0000
  O   O5        1.0  0.0798988507245173  0.35762087642193485  0.5717404096881491  1.0000
  O   O6        1.0  0.9364886878200807  0.7788776010521088  0.5555190001738366  1.0000
  O   O7        1.0  0.9377712402348463  0.5613638547543841  0.7522005435511621  1.0000
  O   O8        1.0  0.9376781928301468  0.5767137735239631  0.37462748595440987  1.0000
  O   O9        1.0  0.9389606920827723  0.35919829381863644  0.5713091065497797  1.0000
