data_image0
_chemical_formula_structural       NC10NC2SH6C10ClC2H9C9N2CH8Zn2C4O8
_chemical_formula_sum              "N4 C38 S1 H23 Cl1 Zn2 O8"
_cell_length_a       18.726821288119407
_cell_length_b       10.299769246903262
_cell_length_c       10.29904744462841
_cell_angle_alpha    85.5441535616138
_cell_angle_beta     90.0178285333519
_cell_angle_gamma    90.73444235296577

_space_group_name_H-M_alt    "P 1"
_space_group_IT_number       1

loop_
  _space_group_symop_operation_xyz
  'x, y, z'

loop_
  _atom_site_type_symbol
  _atom_site_label
  _atom_site_symmetry_multiplicity
  _atom_site_fract_x
  _atom_site_fract_y
  _atom_site_fract_z
  _atom_site_occupancy
  N   N1        1.0  0.672403510171977  0.43714192085499726  0.566169006875255  1.0000
  C   C1        1.0  0.6131457832199628  0.4037878800661885  0.5689891833938308  1.0000
  C   C2        1.0  0.5396070004362582  0.36240011373288383  0.5724882804236764  1.0000
  C   C3        1.0  0.515269949061711  0.23442143377869562  0.582225818000176  1.0000
  C   C4        1.0  0.4406441645465415  0.22338190768059804  0.5831063542700462  1.0000
  C   C5        1.0  0.4060318774232807  0.343233844109736  0.5740951201524807  1.0000
  C   C6        1.0  0.3276788864933098  0.36446994485243905  0.5723625153673453  1.0000
  C   C7        1.0  0.279275250694676  0.2611094938237117  0.6044379254378092  1.0000
  C   C8        1.0  0.205659273749733  0.28225038964669813  0.6025662380548733  1.0000
  C   C9        1.0  0.1792455456998615  0.40672355750855504  0.5688335346882263  1.0000
  C   C10       1.0  0.1034422874219546  0.4282891772685058  0.5669687280468417  1.0000
  N   N2        1.0  0.0425030266852174  0.44562613959084246  0.5654693752515676  1.0000
  C   C11       1.0  0.2267441819256807  0.5102053989382714  0.5371166055482748  1.0000
  C   C12       1.0  0.3003779931070651  0.48939345218965136  0.538954429877291  1.0000
  S   S1        1.0  0.46934671118412974  0.4619874193715855  0.5647742892376617  1.0000
  H   H1        1.0  0.5501824349735119  0.1512294119606026  0.5881336776458335  1.0000
  H   H2        1.0  0.4135478689491919  0.12984603798974856  0.588835150497328  1.0000
  H   H3        1.0  0.2977783703423524  0.16396151935930714  0.6323076977532913  1.0000
  H   H4        1.0  0.1693475545749312  0.20146335021197223  0.6277435748767122  1.0000
  H   H5        1.0  0.2068866033471811  0.6070543745380182  0.5108483077053161  1.0000
  H   H6        1.0  0.3357341834198903  0.5713112956579242  0.5133910283433185  1.0000
  C   C13       1.0  0.8573895381181932  0.06001742082087725  0.5658140776012623  1.0000
  C   C14       1.0  0.8639567734426145  0.06975791845518198  0.42958344719525066  1.0000
  C   C15       1.0  0.8673527041468979  0.9575556419516388  0.36056480515579165  1.0000
  C   C16       1.0  0.8640923389827655  0.8344728618740888  0.4296051359109567  1.0000
  C   C17       1.0  0.8575238519404021  0.8227407296125695  0.5658354938785606  1.0000
  C   C18       1.0  0.8542094229094904  0.9360710799202374  0.6331770794401674  1.0000
  C   C19       1.0  0.8743015267924934  0.9689133029558895  0.21644427070082384  1.0000
  C   C20       1.0  0.9205902882453451  0.8870518082779133  0.1538643375436899  1.0000
  C   C21       1.0  0.9270671418307441  0.8979363099120433  0.018204734552211832  1.0000
  C   C22       1.0  0.8874625327154481  0.9904245098704942  0.9434705527251501  1.0000
  Cl  Cl1       1.0  0.8956673619463651  0.0038352240037720165  0.7732833990351228  1.0000
  C   C23       1.0  0.8413095157803092  0.07220973570475507  0.004559205755390484  1.0000
  C   C24       1.0  0.8347059993402467  0.06171493285855955  0.1401987558314426  1.0000
  H   H7        1.0  0.854859796406109  0.3837588966518054  0.6177214186119699  1.0000
  H   H8        1.0  0.8674301361192119  0.1648559682988779  0.37698443555267547  1.0000
  H   H9        1.0  0.8657052339741221  0.7476888524131191  0.3767099372152191  1.0000
  H   H10       1.0  0.8491428602047587  0.9277886467247736  0.7382726700291122  1.0000
  H   H11       1.0  0.8550547014035472  0.49081698459473644  0.6177517803778484  1.0000
  H   H12       1.0  0.9524461742409496  0.8158270043092999  0.20991300017686476  1.0000
  H   H13       1.0  0.963028272107166  0.8346238608715699  0.9713456063697951  1.0000
  H   H14       1.0  0.8103801940520882  0.1437461506237594  0.947056265013031  1.0000
  H   H15       1.0  0.797971700469022  0.12496604465964453  0.18533399377912074  1.0000
  C   C25       1.0  0.8573783512519862  0.4414985857757774  0.18442767793545653  1.0000
  C   C26       1.0  0.932237080928039  0.45130068309748567  0.18293089101686455  1.0000
  C   C27       1.0  0.9702883939005227  0.45614871984175925  0.0650376811163491  1.0000
  C   C28       1.0  0.9324401611398456  0.4510551288284035  0.9476678225942985  1.0000
  C   C29       1.0  0.8575350051476668  0.44125962279221526  0.9472219487812303  1.0000
  C   C30       1.0  0.8204666630996275  0.43653949888717325  0.06604812757268252  1.0000
  C   C31       1.0  0.04949357800623267  0.46649857179982507  0.06448684738143307  1.0000
  C   C32       1.0  0.09046574512952832  0.39531703728064027  0.9815957722209165  1.0000
  C   C33       1.0  0.16466250760742684  0.40708891343055087  0.983473787918836  1.0000
  N   N3        1.0  0.19635473366275735  0.4873646537296294  0.06534787773664141  1.0000
  N   N4        1.0  0.15791791206839045  0.55563264762928  0.14447142994902995  1.0000
  C   C34       1.0  0.08544499639694547  0.5477513322423992  0.1468797349320181  1.0000
  H   H16       1.0  0.8285690440822572  0.4377764592125157  0.5124792657097641  1.0000
  H   H17       1.0  0.961170410341114  0.4533415698587852  0.2738299423476769  1.0000
  H   H18       1.0  0.9613984132751805  0.456570067941419  0.8563408180671908  1.0000
  H   H19       1.0  0.7627272307021468  0.42898461630802287  0.06648912583549604  1.0000
  H   H20       1.0  0.7161240820012093  0.4236035899014323  0.7390270341366008  1.0000
  H   H21       1.0  0.06545877689047597  0.32992699401917475  0.917306282749628  1.0000
  H   H22       1.0  0.19697921766221094  0.35245032814843835  0.920428722267252  1.0000
  H   H23       1.0  0.05626999578660886  0.6059446368232893  0.2114839263188535  1.0000
  Zn  Zn1       1.0  0.7792062380520348  0.43958679345838236  0.5659746105661987  1.0000
  Zn  Zn2       1.0  0.9357002894783332  0.4431706001988471  0.5656744173452339  1.0000
  C   C35       1.0  0.8575028964427795  0.4361310799584403  0.8030373435560479  1.0000
  C   C36       1.0  0.8574053403124475  0.4466279914037931  0.3286118085992624  1.0000
  C   C37       1.0  0.8574937050431519  0.6785713456753003  0.560655931101132  1.0000
  C   C38       1.0  0.8574144780511009  0.20418616414898927  0.5709932903564715  1.0000
  O   O1        1.0  0.9168030740308277  0.4497038370632062  0.3768873980660614  1.0000
  O   O2        1.0  0.9168805264818161  0.4357742810918332  0.7545335404792817  1.0000
  O   O3        1.0  0.9168723039999661  0.6315478429767651  0.5588088366069612  1.0000
  O   O4        1.0  0.916811243093494  0.2539302832760426  0.5726120046592074  1.0000
  O   O5        1.0  0.7980952310331333  0.6288271091596253  0.5590370233478352  1.0000
  O   O6        1.0  0.7981034537722169  0.433055107591076  0.7547616580134726  1.0000
  O   O7        1.0  0.7980260010400522  0.44698461879708956  0.3771139540826909  1.0000
  O   O8        1.0  0.7980341701181617  0.2512110556905962  0.5728386580506215  1.0000
