data_image0
_chemical_formula_structural       NC8F2C7NH8C6H6C12H10Zn2C4O8
_chemical_formula_sum              "N2 C37 F2 H24 Zn2 O8"
_cell_length_a       17.998342126830877
_cell_length_b       10.681118228259551
_cell_length_c       13.024585202197207
_cell_angle_alpha    85.80459198147678
_cell_angle_beta     93.99278699860983
_cell_angle_gamma    89.99831534662933

_space_group_name_H-M_alt    "P 1"
_space_group_IT_number       1

loop_
  _space_group_symop_operation_xyz
  'x, y, z'

loop_
  _atom_site_type_symbol
  _atom_site_label
  _atom_site_symmetry_multiplicity
  _atom_site_fract_x
  _atom_site_fract_y
  _atom_site_fract_z
  _atom_site_occupancy
  N   N1        1.0  0.642404380974336  0.3648858234829558  0.8648086222406541  1.0000
  C   C1        1.0  0.5938767465035331  0.342048069208166  0.9168061096319882  1.0000
  C   C2        1.0  0.5335138047474391  0.31364137152449745  0.9814833376042524  1.0000
  C   C3        1.0  0.5026064455862014  0.19330428810678751  0.9868260305199426  1.0000
  C   C4        1.0  0.4438817729755511  0.16568223454032438  0.0494653365973987  1.0000
  C   C5        1.0  0.4158660089548494  0.2578409516892397  0.10853102339841554  1.0000
  C   C6        1.0  0.4464903766185062  0.3791094182672743  0.10131869274278126  1.0000
  C   C7        1.0  0.5052127232412026  0.4065319707516126  0.03863096903948637  1.0000
  C   C8        1.0  0.35046860930252877  0.22944927889853847  0.1731741600356812  1.0000
  F   F1        1.0  0.35235814623298567  0.10447421330616091  0.2106340389745203  1.0000
  F   F2        1.0  0.3547558840096632  0.30059114744911447  0.258282707395589  1.0000
  C   C9        1.0  0.2785559050823784  0.257841228603769  0.10853077777616238  1.0000
  C   C10       1.0  0.2472002520614933  0.3791096176303468  0.10131887157749453  1.0000
  C   C11       1.0  0.18215942631281049  0.4065321852257587  0.03863124154649544  1.0000
  C   C12       1.0  0.14810261872110445  0.31364164574928055  0.9814829256157479  1.0000
  C   C13       1.0  0.1795532262628246  0.19330507369529706  0.9868245339327218  1.0000
  C   C14       1.0  0.24459156336553917  0.16568318341930777  0.04946382627088031  1.0000
  C   C15       1.0  0.0812205733715146  0.34204828791153497  0.9168059097139349  1.0000
  N   N2        1.0  0.027451902634044695  0.36488591017962824  0.8648085368521408  1.0000
  H   H1        1.0  0.5236740666608474  0.12097694929718036  0.942251510769355  1.0000
  H   H2        1.0  0.4201746812428717  0.07244387141393016  0.05149064396860126  1.0000
  H   H3        1.0  0.4248231528671775  0.45276018920551664  0.14389066099361025  1.0000
  H   H4        1.0  0.5283102279193318  0.5002916072056194  0.03440806382798267  1.0000
  H   H5        1.0  0.27315499814580907  0.4527601432750945  0.14389139634167858  1.0000
  H   H6        1.0  0.15863271432044726  0.5002915445396487  0.034408775993991836  1.0000
  H   H7        1.0  0.15399645384781047  0.12097807091609306  0.9422491490782345  1.0000
  H   H8        1.0  0.2685064792622902  0.0724453922737971  0.0514882338753071  1.0000
  C   C16       1.0  0.8349319301368213  0.9971358732650795  0.8648130130895462  1.0000
  C   C17       1.0  0.8716666856859102  0.9230290828548995  0.9465450306503498  1.0000
  C   C18       1.0  0.8716666719556981  0.7921468444451003  0.9465449835978182  1.0000
  C   C19       1.0  0.8349319199043469  0.7326262774431532  0.8648130575785962  1.0000
  C   C20       1.0  0.7982275676214277  0.8067220039720766  0.7831485812389207  1.0000
  C   C21       1.0  0.7982275810482284  0.9376142622786526  0.7831486230085065  1.0000
  H   H9        1.0  0.7977829696154871  0.3032209339077965  0.7821602395463043  1.0000
  H   H10       1.0  0.9004611626775727  0.9661233177773676  0.01061041147703934  1.0000
  H   H11       1.0  0.9004610704136634  0.7376192890911983  0.010610393297779352  1.0000
  H   H12       1.0  0.7694293356391506  0.7636732705009435  0.7190748354524943  1.0000
  H   H13       1.0  0.769429315742198  0.9920977094932165  0.7190748270841565  1.0000
  H   H14       1.0  0.7977832291335757  0.44129158163382265  0.7821599611500158  1.0000
  C   C22       1.0  0.8197030086416781  0.36337805655812927  0.5625941545606625  1.0000
  C   C23       1.0  0.8032778312046591  0.4634493924119247  0.48816437304629784  1.0000
  C   C24       1.0  0.8286629116499243  0.46153208529050554  0.38928426888401435  1.0000
  C   C25       1.0  0.8704123499889183  0.3592078002210471  0.362837013262532  1.0000
  C   C26       1.0  0.8875432940408476  0.25984901149336004  0.43719360872025936  1.0000
  C   C27       1.0  0.8621956178045506  0.26166122346810994  0.5361169765565796  1.0000
  C   C28       1.0  0.8983533796901693  0.3580520141672461  0.2586369367271577  1.0000
  C   C29       1.0  0.9758415966541284  0.3539691689003024  0.2509547100244609  1.0000
  C   C30       1.0  0.005708709601182969  0.36060993701619637  0.15473037621242808  1.0000
  C   C31       1.0  0.95871527557371  0.37167757653847344  0.06488179909932579  1.0000
  C   C32       1.0  0.8816088085309147  0.3745895313218168  0.07082140066625175  1.0000
  C   C33       1.0  0.850160802930784  0.3663840714264559  0.16703188370667021  1.0000
  H   H15       1.0  0.7915179130607569  0.2655941601758791  0.8125365764492771  1.0000
  H   H16       1.0  0.7709470955299863  0.5433912620893042  0.5063471696013153  1.0000
  H   H17       1.0  0.8158722559421618  0.5399304372501852  0.3332868656841916  1.0000
  H   H18       1.0  0.9201855300075503  0.1805542176678119  0.4183294508023849  1.0000
  H   H19       1.0  0.8759466774255742  0.18339584975762424  0.5917962331389477  1.0000
  H   H20       1.0  0.013376824060415961  0.34785841063326917  0.31990155222568717  1.0000
  H   H21       1.0  0.06547369689252047  0.35812572555330413  0.14984916764600453  1.0000
  H   H22       1.0  0.9820573747125354  0.37719995678844337  0.9903148489394873  1.0000
  H   H23       1.0  0.8464271862111201  0.38096939787352374  0.9996885790252693  1.0000
  H   H24       1.0  0.6672492710040664  0.4100294035974333  0.0824973937245701  1.0000
  Zn  Zn1       1.0  0.7535210802356439  0.3648825214923816  0.8648145430117977  1.0000
  Zn  Zn2       1.0  0.9163356229768339  0.36487899324259976  0.864811053898501  1.0000
  C   C34       1.0  0.8444019929512802  0.3608269398244264  0.05278023559946087  1.0000
  C   C35       1.0  0.8254564932809202  0.3689361554778657  0.676845462284651  1.0000
  C   C36       1.0  0.8347214340045447  0.5935825139323769  0.8607119420191729  1.0000
  C   C37       1.0  0.8351369994353248  0.1361790770607656  0.8689138107347518  1.0000
  O   O1        1.0  0.8891746857398853  0.37079470188242997  0.715187920754768  1.0000
  O   O2        1.0  0.9042562562323194  0.3589647693505431  0.014434832715714769  1.0000
  O   O3        1.0  0.8964383034572093  0.5469178443787033  0.8593383267525166  1.0000
  O   O4        1.0  0.8969925790690327  0.1828416354301752  0.8702843495538138  1.0000
  O   O5        1.0  0.7728640685825593  0.5469198793073469  0.859341247352262  1.0000
  O   O6        1.0  0.780682018589115  0.3589683085908759  0.014437698441424172  1.0000
  O   O7        1.0  0.7656003857958827  0.37079819132931857  0.7151895491358736  1.0000
  O   O8        1.0  0.7734182830101071  0.18284511630369876  0.8702860550948491  1.0000
