data_image0
_chemical_formula_structural       NC5OC5NC4H8C9H8C7F3H5Zn2C4O8
_chemical_formula_sum              "N2 C34 O9 H21 F3 Zn2"
_cell_length_a       19.189071930511275
_cell_length_b       9.275152443626249
_cell_length_c       10.299327507215196
_cell_angle_alpha    85.35552067985554
_cell_angle_beta     89.9592371194645
_cell_angle_gamma    90.56463589314393

_space_group_name_H-M_alt    "P 1"
_space_group_IT_number       1

loop_
  _space_group_symop_operation_xyz
  'x, y, z'

loop_
  _atom_site_type_symbol
  _atom_site_label
  _atom_site_symmetry_multiplicity
  _atom_site_fract_x
  _atom_site_fract_y
  _atom_site_fract_z
  _atom_site_occupancy
  N   N1        1.0  0.6641080223090524  0.5788421144496803  0.5620757702243397  1.0000
  C   C1        1.0  0.6099022182566239  0.6300738283970511  0.543624201400096  1.0000
  C   C2        1.0  0.5424771785852052  0.6937975433907009  0.5206732251825488  1.0000
  C   C3        1.0  0.5333203033897012  0.8014781482812435  0.4189169693927921  1.0000
  C   C4        1.0  0.46782452403000757  0.8634587055611944  0.3967483941896033  1.0000
  C   C5        1.0  0.410826527791478  0.817643856250015  0.4749810947080748  1.0000
  O   O1        1.0  0.3461796887605006  0.8836588015178395  0.4505349768197442  1.0000
  C   C6        1.0  0.2808845718713525  0.8174333840218939  0.4744175174110414  1.0000
  C   C7        1.0  0.2245337626986501  0.9036162293162582  0.5044104329015351  1.0000
  C   C8        1.0  0.15843182778620485  0.8419526489601775  0.5274287228890404  1.0000
  C   C9        1.0  0.1480181730139946  0.6933040613467734  0.5193505706238475  1.0000
  C   C10       1.0  0.0799692881638076  0.6298019331161386  0.5428953621175201  1.0000
  N   N2        1.0  0.025261985976181105  0.5787484307298245  0.5618247676753432  1.0000
  C   C11       1.0  0.2038944247192361  0.6067790715962389  0.4874412467118936  1.0000
  C   C12       1.0  0.2699877039583612  0.6684864568637707  0.46446645779639306  1.0000
  C   C13       1.0  0.4204701354037075  0.7109656672647344  0.5783526851646528  1.0000
  C   C14       1.0  0.4859569687245387  0.6489805411772139  0.6005826553321676  1.0000
  H   H1        1.0  0.5767545142496666  0.837603002626642  0.35691067253787945  1.0000
  H   H2        1.0  0.4612066947118909  0.9468247073163538  0.31801616849481795  1.0000
  H   H3        1.0  0.23212439699856402  0.018668451919585216  0.5106289248676321  1.0000
  H   H4        1.0  0.1155088292670287  0.910117454278756  0.5513215538477769  1.0000
  H   H5        1.0  0.1962983726959079  0.491897220073545  0.4796473025164793  1.0000
  H   H6        1.0  0.3122033220424483  0.6005540093026587  0.4371590262038805  1.0000
  H   H7        1.0  0.3777561490977491  0.6772590762863422  0.6428047980515201  1.0000
  H   H8        1.0  0.49258678562894304  0.5667783318166789  0.680402790199758  1.0000
  C   C15       1.0  0.8426323645602657  0.15516332745095054  0.5632776165064519  1.0000
  C   C16       1.0  0.8175124855963545  0.23792618978320812  0.45295947688899507  1.0000
  C   C17       1.0  0.7988707457354133  0.17250694391590438  0.3405710770080401  1.0000
  C   C18       1.0  0.8050562554988818  0.023164060094971184  0.33627550644543547  1.0000
  C   C19       1.0  0.8288135674800826  0.9387135474765294  0.445662114350948  1.0000
  C   C20       1.0  0.8467442834611364  0.002416185566791689  0.5606341344906507  1.0000
  C   C21       1.0  0.7861963077509  0.956037321730155  0.21988994096684422  1.0000
  C   C22       1.0  0.7704055102141015  0.8998010338671476  0.12243527683224696  1.0000
  C   C23       1.0  0.75124649906952  0.8315562457294207  0.004191133281224117  1.0000
  H   H9        1.0  0.9427219103712534  0.2367489791972548  0.8225845402148175  1.0000
  H   H10       1.0  0.8138416289391031  0.3544446903355405  0.45255350168653097  1.0000
  H   H11       1.0  0.7802535327300378  0.23876445673030222  0.25647006871577904  1.0000
  H   H12       1.0  0.8317482866014786  0.8224033131467843  0.44203702911509013  1.0000
  H   H13       1.0  0.9118971233409863  0.7070726406787763  0.7379936614529323  1.0000
  H   H14       1.0  0.7639840062603428  0.7148292500712773  0.016315445342535817  1.0000
  H   H15       1.0  0.6945300567834188  0.8441562482420707  0.9864506976376698  1.0000
  H   H16       1.0  0.7806908675127154  0.883910058291761  0.9201041440004034  1.0000
  C   C24       1.0  0.8447553402749862  0.5788483172785825  0.18057408111997053  1.0000
  C   C25       1.0  0.9127569542529896  0.6366740155337596  0.17507606769304007  1.0000
  C   C26       1.0  0.9465641064415871  0.6682935068229159  0.054999002507312156  1.0000
  C   C27       1.0  0.9125809781794337  0.636521083955818  0.9398392091226732  1.0000
  C   C28       1.0  0.8446213245689929  0.5787311852134671  0.9433377157314106  1.0000
  C   C29       1.0  0.8110017252090973  0.5507647794002499  0.06417583172827968  1.0000
  C   C30       1.0  0.02049678460520732  0.7254804563821526  0.05050698990919078  1.0000
  F   F1        1.0  0.033078395718775015  0.8097202125052345  0.153126852366416  1.0000
  F   F2        1.0  0.06596981487923292  0.6104496392172984  0.05870281552098899  1.0000
  F   F3        1.0  0.03288685617985343  0.8097006893696836  0.9354836428297445  1.0000
  H   H17       1.0  0.7168893603547167  0.467312435838261  0.39836276736315357  1.0000
  H   H18       1.0  0.9395801878634329  0.6569571652748193  0.26439071763154604  1.0000
  H   H19       1.0  0.9392834885426593  0.6566954530041917  0.8473777191873908  1.0000
  H   H20       1.0  0.7585890916746815  0.5061988580801264  0.06760846722523106  1.0000
  H   H21       1.0  0.8189374630025981  0.5541457852158579  0.6174006826909162  1.0000
  Zn  Zn1       1.0  0.7683292436536028  0.5788112297225825  0.5620108426143935  1.0000
  Zn  Zn2       1.0  0.9210407230841691  0.5787675566336592  0.56190035070084  1.0000
  C   C31       1.0  0.8446171909245858  0.5730062843384185  0.7991769769675543  1.0000
  C   C32       1.0  0.8447544522292931  0.5845743217316162  0.32473433693277176  1.0000
  C   C33       1.0  0.8459643611979039  0.8422681280950874  0.5559584911053104  1.0000
  C   C34       1.0  0.8434072214223651  0.3153107447649741  0.567952897481361  1.0000
  O   O2        1.0  0.9027073342300176  0.5864731538091157  0.3730739242346197  1.0000
  O   O3        1.0  0.9025687830925087  0.5710732171596979  0.7507531583967579  1.0000
  O   O4        1.0  0.9036558586512011  0.7885055612899945  0.554352506137076  1.0000
  O   O5        1.0  0.9016202066284377  0.3690408200284365  0.5694744791218465  1.0000
  O   O6        1.0  0.78774970799641  0.78853796634428  0.5544367142242561  1.0000
  O   O7        1.0  0.786662640858403  0.5711073554404313  0.7508372918284627  1.0000
  O   O8        1.0  0.7868011920726722  0.5865072420584656  0.37315649636965365  1.0000
  O   O9        1.0  0.7857140644010554  0.3690748979446443  0.5695571486602051  1.0000
