data_image0
_chemical_formula_structural       NC5NC3OH4C6NCH9C6ClH5Zn2C4O8
_chemical_formula_sum              "N3 C25 O9 H18 Cl1 Zn2"
_cell_length_a       13.84702359539666
_cell_length_b       9.273386996610926
_cell_length_c       10.302974078461048
_cell_angle_alpha    85.46621229036245
_cell_angle_beta     89.98558386727187
_cell_angle_gamma    89.39943260271846

_space_group_name_H-M_alt    "P 1"
_space_group_IT_number       1

loop_
  _space_group_symop_operation_xyz
  'x, y, z'

loop_
  _atom_site_type_symbol
  _atom_site_label
  _atom_site_symmetry_multiplicity
  _atom_site_fract_x
  _atom_site_fract_y
  _atom_site_fract_z
  _atom_site_occupancy
  N   N1        1.0  0.8982805762440639  0.5789208441734635  0.5653200427686662  1.0000
  C   C1        1.0  0.8261972894804394  0.5702480349565475  0.6221278064597253  1.0000
  C   C2        1.0  0.7364265646539148  0.5594485556871966  0.6928654418325122  1.0000
  C   C3        1.0  0.648769281280345  0.56988153771664  0.6245278084406756  1.0000
  C   C4        1.0  0.5609801698462209  0.559569774100791  0.692071094985051  1.0000
  C   C5        1.0  0.4710538195721596  0.5703113395449539  0.6217128957904516  1.0000
  N   N2        1.0  0.39876466915346853  0.5789467334731706  0.5651505127461489  1.0000
  C   C6        1.0  0.5608432076155563  0.5387939091050999  0.8281550456491209  1.0000
  C   C7        1.0  0.6481203305627425  0.5283512019288925  0.8965539655655919  1.0000
  C   C8        1.0  0.7362253370495312  0.5385965107551487  0.8294473052945283  1.0000
  O   O1        1.0  0.8232229532936532  0.5281359763701102  0.8979645997633494  1.0000
  H   H1        1.0  0.6488799672340647  0.5859770082914586  0.519101672882281  1.0000
  H   H2        1.0  0.49334538181338655  0.5306780042993062  0.8813147205131003  1.0000
  H   H3        1.0  0.6472310670106087  0.512287656178027  0.001771634756059237  1.0000
  H   H4        1.0  0.8248604305320256  0.5131019917863933  0.9964377924687877  1.0000
  C   C9        1.0  0.15149693734932357  0.15527995016808815  0.5658722167289982  1.0000
  C   C10       1.0  0.16845373984520617  0.2387564375066535  0.4484809598492463  1.0000
  C   C11       1.0  0.17631769475137407  0.17425396606334548  0.3310855273550277  1.0000
  C   C12       1.0  0.1673438071037432  0.023952837739988023  0.3280798510618368  1.0000
  C   C13       1.0  0.15208886816610817  0.939513524061499  0.4450627603830817  1.0000
  C   C14       1.0  0.1455575885124103  0.002576499643890616  0.5646095701429856  1.0000
  N   N3        1.0  0.17439137952061068  0.9544138996558376  0.20826100534050473  1.0000
  C   C15       1.0  0.1904791973721811  0.03231124055631973  0.08156515507389628  1.0000
  H   H5        1.0  0.1712269229322254  0.41742566997090114  0.779009527287888  1.0000
  H   H6        1.0  0.17337941293247727  0.3554025857158154  0.44688651208133706  1.0000
  H   H7        1.0  0.18849642949573653  0.24285672267524624  0.24289558465455308  1.0000
  H   H8        1.0  0.14753058733274574  0.8231122189744348  0.44301623872963775  1.0000
  H   H9        1.0  0.18111493341286566  0.8712163574902408  0.8808048109170846  1.0000
  H   H10       1.0  0.16756384052954965  0.8420464237591267  0.21095546236192922  1.0000
  H   H11       1.0  0.1306112275668665  0.11088170860475799  0.05902853040318901  1.0000
  H   H12       1.0  0.2603784772240003  0.08986660339618899  0.08175096860191312  1.0000
  H   H13       1.0  0.19291369296842897  0.9548747797307091  0.0047061299767716626  1.0000
  C   C16       1.0  0.14852728133983195  0.5789282537951648  0.18399838732117968  1.0000
  C   C17       1.0  0.13277910910049084  0.4290862531183992  0.19346104629772798  1.0000
  C   C18       1.0  0.12496534513288804  0.35473873363473746  0.08119936838753428  1.0000
  C   C19       1.0  0.1327791517211132  0.42908633459689977  0.9583531471905693  1.0000
  C   C20       1.0  0.14852727939853194  0.5789281793253354  0.946483406506411  1.0000
  C   C21       1.0  0.1563246173640247  0.6531187940701609  0.05995980675175039  1.0000
  Cl  Cl1       1.0  0.10529213992117858  0.16755047751183016  0.09452402020576645  1.0000
  H   H14       1.0  0.15445990285503042  0.6353711492085636  0.5077369059098622  1.0000
  H   H15       1.0  0.12651570638456855  0.3694905903341512  0.2877497964561649  1.0000
  H   H16       1.0  0.1265157740127245  0.36949056975175815  0.8725488303900728  1.0000
  H   H17       1.0  0.16847003714857636  0.7686814424480259  0.05173359511531862  1.0000
  H   H18       1.0  0.15445971918128537  0.6353711364323282  0.6147092755097692  1.0000
  Zn  Zn1       1.0  0.04270949975240601  0.5789244531037981  0.5652786117292632  1.0000
  Zn  Zn2       1.0  0.2543358043311688  0.5789313200092877  0.5652025566449401  1.0000
  C   C22       1.0  0.14856539902614574  0.5731809022378439  0.8023659498755407  1.0000
  C   C23       1.0  0.14848220325023156  0.5846766912544806  0.3281153423796557  1.0000
  C   C24       1.0  0.14667529736624862  0.8424194301690934  0.5596747618357845  1.0000
  C   C25       1.0  0.1503722448468701  0.31543643001715704  0.5708066022440752  1.0000
  O   O2        1.0  0.22877819843833772  0.5866022313933648  0.3764534558932464  1.0000
  O   O3        1.0  0.2288888799430216  0.5712594855704901  0.7539697402125363  1.0000
  O   O4        1.0  0.22736151631725776  0.7886730018256878  0.557994886943628  1.0000
  O   O5        1.0  0.2303054897780381  0.36918872545611997  0.5724282118303398  1.0000
  O   O6        1.0  0.06673974208785376  0.7886670476561933  0.5580529565629861  1.0000
  O   O7        1.0  0.06826709355919357  0.5712552647062961  0.7540277380263554  1.0000
  O   O8        1.0  0.06815641247117954  0.5865979602554592  0.3765098928988717  1.0000
  O   O9        1.0  0.06968370387926064  0.3691844439994891  0.5724847461869034  1.0000
