data_image0
_chemical_formula_structural       NC5OC5NC4H8C9H10C6NCH7Zn2C4O8
_chemical_formula_sum              "N3 C34 O9 H25 Zn2"
_cell_length_a       19.189071930511275
_cell_length_b       10.297183801781406
_cell_length_c       9.273390368590325
_cell_angle_alpha    86.14107260812962
_cell_angle_beta     89.96896470301299
_cell_angle_gamma    89.98878219536965

_space_group_name_H-M_alt    "P 1"
_space_group_IT_number       1

loop_
  _space_group_symop_operation_xyz
  'x, y, z'

loop_
  _atom_site_type_symbol
  _atom_site_label
  _atom_site_symmetry_multiplicity
  _atom_site_fract_x
  _atom_site_fract_y
  _atom_site_fract_z
  _atom_site_occupancy
  N   N1        1.0  0.6563072130932165  0.4063024042616323  0.4089720544229363  1.0000
  C   C1        1.0  0.6018508261735019  0.4522389061962106  0.3886486104076978  1.0000
  C   C2        1.0  0.5341141031448329  0.5093762566092992  0.3633693005220634  1.0000
  C   C3        1.0  0.524424862500167  0.6052495951385304  0.2507663716089126  1.0000
  C   C4        1.0  0.4586259398057533  0.6608256206501959  0.2263501213418373  1.0000
  C   C5        1.0  0.4018576012169604  0.6204103470600543  0.3130327478059014  1.0000
  O   O1        1.0  0.3368878115962827  0.6795949020367977  0.28610104580878803  1.0000
  C   C6        1.0  0.271916617065624  0.6202147490659089  0.3124066795195586  1.0000
  C   C7        1.0  0.21514977965796392  0.6981466128456671  0.34594987202393335  1.0000
  C   C8        1.0  0.1493495246557912  0.6428651734986566  0.37131005470555856  1.0000
  C   C9        1.0  0.139657375909266  0.5089176356818687  0.3618999878327136  1.0000
  C   C10       1.0  0.07191915137377382  0.4519862174556095  0.38783895632011794  1.0000
  N   N2        1.0  0.017461609293010504  0.40621533965490886  0.4086932201910543  1.0000
  C   C11       1.0  0.1959511453158039  0.43065704425724943  0.32622900915113867  1.0000
  C   C12       1.0  0.2617425357356651  0.4859783987563704  0.30091723360244327  1.0000
  C   C13       1.0  0.41202884960569275  0.5254570824308347  0.4274313196333419  1.0000
  C   C14       1.0  0.47781885399874313  0.4698776032424285  0.45191569014804595  1.0000
  H   H1        1.0  0.5676779601991581  0.6371134581813066  0.18206220372937998  1.0000
  H   H2        1.0  0.45159595900666766  0.7350509796300686  0.13922561058386562  1.0000
  H   H3        1.0  0.2221819738955404  0.8018200345853125  0.3531955288024209  1.0000
  H   H4        1.0  0.1060974913025099  0.7045058443249623  0.39802962544189135  1.0000
  H   H5        1.0  0.18891256343749763  0.32712009265921926  0.31723548221647957  1.0000
  H   H6        1.0  0.30428575163246463  0.4245102288030515  0.2704089573597943  1.0000
  H   H7        1.0  0.3694844475759304  0.4957972243683563  0.4988570095501075  1.0000
  H   H8        1.0  0.4848552660506719  0.3967119653461115  0.5402510092476503  1.0000
  C   C15       1.0  0.8368901803780031  0.02478528257692636  0.40903684430828013  1.0000
  C   C16       1.0  0.8348702293647468  0.033194129656630704  0.2573721060970418  1.0000
  C   C17       1.0  0.833835188199812  0.9208857405627763  0.17966982568962897  1.0000
  C   C18       1.0  0.8348621103238675  0.7980174125063096  0.25678427625327394  1.0000
  C   C19       1.0  0.8368853431138469  0.7877226201386978  0.40864084763435105  1.0000
  C   C20       1.0  0.8378855093479368  0.9015731990198702  0.4837758471813711  1.0000
  C   C21       1.0  0.8316502757358756  0.9394126972961687  0.015633702186748758  1.0000
  C   C22       1.0  0.7908510124661962  0.83993769731172  0.9354328466172374  1.0000
  C   C23       1.0  0.8702439724692157  0.8401829559148762  0.9307929628925504  1.0000
  H   H9        1.0  0.8376751493810318  0.3490835364760229  0.46747812750391154  1.0000
  H   H10       1.0  0.834090563168887  0.1278627738655458  0.1988211494521488  1.0000
  H   H11       1.0  0.8341024046515826  0.7098730460958823  0.1998592696510446  1.0000
  H   H12       1.0  0.8394435946857571  0.8943581541367882  0.6007883778318419  1.0000
  H   H13       1.0  0.8406974029954087  0.56106220843176  0.6954551587721103  1.0000
  H   H14       1.0  0.8309486462488866  0.03962379464712716  0.9629096079354317  1.0000
  H   H15       1.0  0.7675917278200628  0.7569335745842392  0.0010417124502894953  1.0000
  H   H16       1.0  0.7662733721429035  0.8798405892372102  0.8334787030233515  1.0000
  H   H17       1.0  0.8952116475497052  0.7573286215334878  0.9935841009271976  1.0000
  H   H18       1.0  0.8920680234388344  0.8802268106448754  0.8261256816299842  1.0000
  C   C24       1.0  0.836920081190536  0.40220301043729423  0.985595166361188  1.0000
  C   C25       1.0  0.9009248061572704  0.3996064722357037  0.059149575605228266  1.0000
  C   C26       1.0  0.963813068065376  0.40908611407964307  0.9836813051271164  1.0000
  C   C27       1.0  0.9642944465384815  0.4215138330428856  0.832046494572912  1.0000
  C   C28       1.0  0.9007144950318914  0.4219195084184404  0.7576832924292893  1.0000
  C   C29       1.0  0.8368554467411813  0.41030491297556  0.8320825457513719  1.0000
  N   N3        1.0  0.028360531918266492  0.432488911997263  0.7512030553261004  1.0000
  C   C30       1.0  0.09716603986749298  0.432625436896811  0.8181380508710704  1.0000
  H   H19       1.0  0.7269268342918644  0.33982952481739925  0.2715524711442612  1.0000
  H   H20       1.0  0.01182756436292865  0.40787920091982727  0.04476585932043253  1.0000
  H   H21       1.0  0.6744508214881549  0.30942223236649957  0.7367692297198158  1.0000
  H   H22       1.0  0.026099367858080095  0.4410987621945386  0.638324499313053  1.0000
  H   H23       1.0  0.10168821101300263  0.5159562653423728  0.8875598432077574  1.0000
  H   H24       1.0  0.10566706725948527  0.3397658183460572  0.883733621157071  1.0000
  H   H25       1.0  0.1380052205709861  0.4424361583693841  0.7332108562626272  1.0000
  Zn  Zn1       1.0  0.7605285786386712  0.406273893407578  0.4088999075835642  1.0000
  Zn  Zn2       1.0  0.9132402602937187  0.406233376138714  0.4087771568095684  1.0000
  C   C31       1.0  0.8368661277718533  0.4035983609002689  0.6720810000129442  1.0000
  C   C32       1.0  0.8369043787461292  0.40891054862717596  0.14559620365149617  1.0000
  C   C33       1.0  0.836883099261797  0.6434562498064271  0.40297231424918567  1.0000
  C   C34       1.0  0.8368873551504138  0.16905109973917898  0.4147049671082833  1.0000
  O   O2        1.0  0.894852396222838  0.4111406163279003  0.1992474330559857  1.0000
  O   O3        1.0  0.8948227432014583  0.4013365575673642  0.6183361912250775  1.0000
  O   O4        1.0  0.8948356665417274  0.5950248508272644  0.4010290234091858  1.0000
  O   O5        1.0  0.894839420780611  0.21745233134027583  0.4165544928424134  1.0000
  O   O6        1.0  0.7789293660387773  0.5950549382211847  0.40112257158502573  1.0000
  O   O7        1.0  0.778916442691278  0.4013682049582914  0.6184296617421963  1.0000
  O   O8        1.0  0.7789460958916411  0.41117220186506404  0.19933917075214413  1.0000
  O   O9        1.0  0.7789331204383703  0.21748390862033196  0.4166463386023431  1.0000
