data_image0
_chemical_formula_structural       NC5NC3F3CH3C7NH5C7OH5Zn2C4O8
_chemical_formula_sum              "N3 C27 F3 H13 O9 Zn2"
_cell_length_a       13.85151926108384
_cell_length_b       9.275154477615127
_cell_length_c       9.274074313596556
_cell_angle_alpha    86.3499061385644
_cell_angle_beta     90.23361225849852
_cell_angle_gamma    89.43371178103573

_space_group_name_H-M_alt    "P 1"
_space_group_IT_number       1

loop_
  _space_group_symop_operation_xyz
  'x, y, z'

loop_
  _atom_site_type_symbol
  _atom_site_label
  _atom_site_symmetry_multiplicity
  _atom_site_fract_x
  _atom_site_fract_y
  _atom_site_fract_z
  _atom_site_occupancy
  N   N1        1.0  0.8944192363620576  0.5623507930473135  0.4164035147575964  1.0000
  C   C1        1.0  0.8223161463793996  0.5538855899610033  0.4788239124285931  1.0000
  C   C2        1.0  0.7326142455230544  0.5433537200721092  0.5564838170283151  1.0000
  C   C3        1.0  0.6448260337021681  0.5518322989839056  0.48100803329555597  1.0000
  C   C4        1.0  0.5575622560525714  0.5433537067325296  0.5564837969209906  1.0000
  C   C5        1.0  0.46729689440408206  0.5538856070299828  0.4788240065446716  1.0000
  N   N2        1.0  0.39474105128006415  0.5623507562011021  0.41640362004301545  1.0000
  C   C6        1.0  0.5580844891149391  0.5254005050732522  0.7076074050703927  1.0000
  C   C7        1.0  0.6459062094806356  0.5137451864323992  0.7843324450913052  1.0000
  C   C8        1.0  0.6464435206148785  0.4997705455609767  0.947265078930298  1.0000
  F   F1        1.0  0.7280096379094628  0.42547807904199697  0.9985618449801066  1.0000
  F   F2        1.0  0.5661408237154599  0.4254780494231427  0.9985619441392846  1.0000
  F   F3        1.0  0.6456841494671844  0.6360629329624152  0.9995145253797496  1.0000
  C   C9        1.0  0.7331548166373605  0.5254004100327176  0.7076074243064432  1.0000
  H   H1        1.0  0.6444135597510511  0.565892470347419  0.36400341100737976  1.0000
  H   H2        1.0  0.4901490636607605  0.5207891438943424  0.765229529231968  1.0000
  H   H3        1.0  0.8014658176050283  0.5207890626100979  0.7652294878769981  1.0000
  C   C10       1.0  0.14737398180992778  0.13894512992639885  0.4147356666941959  1.0000
  C   C11       1.0  0.12053580226978133  0.22087738690533645  0.2876543643476335  1.0000
  C   C12       1.0  0.08586300112156134  0.15365818057756764  0.16730474696715136  1.0000
  C   C13       1.0  0.07745898057142744  0.0035897959013406785  0.17261905420938972  1.0000
  C   C14       1.0  0.10518420656329044  0.9204214434333639  0.2968036396464171  1.0000
  C   C15       1.0  0.14179564328322436  0.9857454982793029  0.4180838828099118  1.0000
  C   C16       1.0  0.057736345279988166  0.23915722235077078  0.03869178342726066  1.0000
  N   N3        1.0  0.035130308546772675  0.30788286911749374  0.9353199046556084  1.0000
  H   H4        1.0  0.16703630672717318  0.2190873374289393  0.7685280551656348  1.0000
  H   H5        1.0  0.12446706320448887  0.33779482850008313  0.2833777803413946  1.0000
  H   H6        1.0  0.05029634463784327  0.9505557155342721  0.08012281463592297  1.0000
  H   H7        1.0  0.10011441641034802  0.8039526029127848  0.29667679479750464  1.0000
  H   H8        1.0  0.15912849825383635  0.6893010220856107  0.6551348470803626  1.0000
  C   C17       1.0  0.14345623544879227  0.5581926193954347  0.993152156181254  1.0000
  C   C18       1.0  0.0590004882394575  0.6007597783380629  0.0632093057209806  1.0000
  C   C19       1.0  0.9792224051781944  0.6549143914750173  0.984241186905162  1.0000
  C   C20       1.0  0.9820327683351556  0.6679422847810781  0.8330126966707647  1.0000
  C   C21       1.0  0.06519648384879195  0.62363439933909  0.7618087783697036  1.0000
  C   C22       1.0  0.14571335181352407  0.5664979406266145  0.839667400893866  1.0000
  C   C23       1.0  0.8986062966120134  0.726061925275884  0.7478517792870663  1.0000
  O   O1        1.0  0.8226892449545788  0.7662349907044743  0.8087168881290672  1.0000
  H   H9        1.0  0.37958422202427844  0.5214581624727587  0.09979550937637538  1.0000
  H   H10       1.0  0.9156613260519819  0.6879212137835473  0.041773338241212876  1.0000
  H   H11       1.0  0.06626913149488867  0.6306217288029198  0.644679742780589  1.0000
  H   H12       1.0  0.3044703297968867  0.5365304656056435  0.5620831061637279  1.0000
  H   H13       1.0  0.9019767870032619  0.7348136942802024  0.6310168660264956  1.0000
  Zn  Zn1       1.0  0.038801352287461954  0.5623470147654708  0.4164118376489072  1.0000
  Zn  Zn2       1.0  0.25035902670660165  0.5623428893895124  0.4164070025877895  1.0000
  C   C24       1.0  0.1453224183236348  0.5591841398749622  0.6796351404738883  1.0000
  C   C25       1.0  0.14384025926653157  0.5655075848611288  0.15318384837018573  1.0000
  C   C26       1.0  0.14282977977664582  0.8256258318823047  0.4117073624949794  1.0000
  C   C27       1.0  0.14633283724011495  0.2990641613205163  0.42111169634507295  1.0000
  O   O2        1.0  0.22425421750523558  0.5679546982819139  0.20689008642476006  1.0000
  O   O3        1.0  0.22547584591674696  0.5567328036050434  0.6259248135106597  1.0000
  O   O4        1.0  0.22346193048180849  0.7718878542413151  0.4095712431116474  1.0000
  O   O5        1.0  0.22626806039376643  0.35279965690099546  0.423243548796127  1.0000
  O   O6        1.0  0.06289224640601467  0.7718902472568908  0.4095752914346449  1.0000
  O   O7        1.0  0.06490615022007651  0.5567369281567927  0.6259287918317535  1.0000
  O   O8        1.0  0.06368451758315087  0.5679587555873953  0.20689233164585574  1.0000
  O   O9        1.0  0.06569836082380753  0.3528037049540265  0.4232459020389428  1.0000
