data_image0
_chemical_formula_structural       NC9NC3OCH8C13OH12C12IH9Zn2C4O8
_chemical_formula_sum              "N2 C42 O10 H29 I1 Zn2"
_cell_length_a       17.728193572023454
_cell_length_b       10.299150109392551
_cell_length_c       10.29977335064465
_cell_angle_alpha    85.52407015278276
_cell_angle_beta     90.71329701694225
_cell_angle_gamma    88.43520969070386

_space_group_name_H-M_alt    "P 1"
_space_group_IT_number       1

loop_
  _space_group_symop_operation_xyz
  'x, y, z'

loop_
  _atom_site_type_symbol
  _atom_site_label
  _atom_site_symmetry_multiplicity
  _atom_site_fract_x
  _atom_site_fract_y
  _atom_site_fract_z
  _atom_site_occupancy
  N   N1        1.0  0.7102085877141132  0.3874626423321521  0.5846907366512124  1.0000
  C   C1        1.0  0.6496015939183061  0.35002752553910943  0.5977090724093739  1.0000
  C   C2        1.0  0.5741542142221397  0.30349067394983137  0.6139115399716613  1.0000
  C   C3        1.0  0.5622708285800003  0.17543876795838598  0.6233763492677696  1.0000
  C   C4        1.0  0.48556720353332844  0.12597853996077957  0.6383443092272856  1.0000
  C   C5        1.0  0.42741159443137733  0.20865026122417138  0.6557857273002948  1.0000
  C   C6        1.0  0.3493698482084269  0.16359191565604814  0.6775357922793199  1.0000
  C   C7        1.0  0.2880157454047577  0.2490786039902413  0.6420441832692301  1.0000
  C   C8        1.0  0.2137471566115629  0.20976643859506927  0.6622060412749338  1.0000
  C   C9        1.0  0.15141382354445557  0.29779077878838844  0.6246391835400351  1.0000
  N   N2        1.0  0.10131123449753673  0.36855381970905854  0.5944389811134871  1.0000
  C   C10       1.0  0.2002013213695141  0.08484740471138918  0.7189136464279948  1.0000
  C   C11       1.0  0.2606568562422936  0.9996778704332391  0.7558137216725409  1.0000
  C   C12       1.0  0.33482187733824936  0.03850032792552937  0.7357816184780164  1.0000
  O   O1        1.0  0.4407532073939041  0.3424478764419116  0.6544440320498093  1.0000
  C   C13       1.0  0.508466707734419  0.3998478718439473  0.6058142552678569  1.0000
  H   H1        1.0  0.6092053370114673  0.10597265348275366  0.6212991455792922  1.0000
  H   H2        1.0  0.4779259587807893  0.02232092913344519  0.6363975232766241  1.0000
  H   H3        1.0  0.29789186539417556  0.34592581760924257  0.5975837705807977  1.0000
  H   H4        1.0  0.1429917424108986  0.053551522049751984  0.7350647428294549  1.0000
  H   H5        1.0  0.2500440093402108  0.903489440767721  0.8007350471542534  1.0000
  H   H6        1.0  0.3803634093617728  0.9712541541098888  0.7682253077218152  1.0000
  H   H7        1.0  0.49898332041150284  0.4358118253000023  0.5022747136700392  1.0000
  H   H8        1.0  0.5213449097344542  0.4842239743680603  0.6623679327349856  1.0000
  C   C14       1.0  0.905834677864101  0.9966049366221525  0.5897108502108924  1.0000
  C   C15       1.0  0.9044575050140852  0.9848276559599772  0.7264868581433768  1.0000
  C   C16       1.0  0.9036935606925709  0.8617249770546554  0.7955698664175177  1.0000
  C   C17       1.0  0.9043119711674514  0.7495794528006785  0.7261198367704458  1.0000
  C   C18       1.0  0.9056923993415119  0.759401144828675  0.5894303086986658  1.0000
  C   C19       1.0  0.9064477611417322  0.8833743597415734  0.5220246701695233  1.0000
  C   C20       1.0  0.9022300796049489  0.8502480445423156  0.9401730882116742  1.0000
  C   C21       1.0  0.8558323684121236  0.7595912836898977  0.007037838172831543  1.0000
  C   C22       1.0  0.8544302320714133  0.7488741197548056  0.14310870218546523  1.0000
  C   C23       1.0  0.8998954327127833  0.8276316597014434  0.2147870123421928  1.0000
  C   C24       1.0  0.9455712066175025  0.9192767725739973  0.14854683781726477  1.0000
  C   C25       1.0  0.9469908606157965  0.9301688866906368  0.012476121720344286  1.0000
  C   C26       1.0  0.8968019456603039  0.8185463943944954  0.36079575626729343  1.0000
  O   O2        1.0  0.8404013583787999  0.9044369548285436  0.3996305103357277  1.0000
  H   H9        1.0  0.9079438705421885  0.22615164578181762  0.33152750536455766  1.0000
  H   H10       1.0  0.9029296128297445  0.07165819924415451  0.7794571997574855  1.0000
  H   H11       1.0  0.904747523547975  0.6544191448702616  0.7789640551510961  1.0000
  H   H12       1.0  0.9075103912833866  0.8916664365007954  0.4165918938677524  1.0000
  H   H13       1.0  0.906172566658622  0.4357058997988277  0.536853456199783  1.0000
  H   H14       1.0  0.8197371318388851  0.6983443491389578  0.9540296200324943  1.0000
  H   H15       1.0  0.8177246165576701  0.6793030800320385  0.19256922970067403  1.0000
  H   H16       1.0  0.9802764407994804  0.9821436427530323  0.20226661370229018  1.0000
  H   H17       1.0  0.9837218372224718  0.00018387643632844215  0.9638228672651099  1.0000
  H   H18       1.0  0.9523161102719682  0.8436788186457631  0.40234933850151966  1.0000
  H   H19       1.0  0.884541542786229  0.7171058143808451  0.39830263813681077  1.0000
  H   H20       1.0  0.8406899849760227  0.8947149847232896  0.49626410612984767  1.0000
  C   C27       1.0  0.905727540348799  0.3781108910290736  0.20820043660671428  1.0000
  C   C28       1.0  0.9741237525310507  0.4438131979036135  0.20354293855008487  1.0000
  C   C29       1.0  0.008816955200272364  0.4769954795240918  0.08405385576770175  1.0000
  C   C30       1.0  0.9741963839911323  0.4435955125301019  0.9682752133036865  1.0000
  C   C31       1.0  0.9057995394226973  0.3778952413381587  0.9709407366680495  1.0000
  C   C32       1.0  0.8719484041875766  0.345519753794685  0.09138093907208233  1.0000
  C   C33       1.0  0.08117414585267846  0.5465007321801623  0.08018062266921522  1.0000
  C   C34       1.0  0.09302621499678797  0.6489551503679843  0.160249241684137  1.0000
  C   C35       1.0  0.16116831931686276  0.7142584398500771  0.15640294694904244  1.0000
  C   C36       1.0  0.2182156918021254  0.6781380385912037  0.07284762220577723  1.0000
  C   C37       1.0  0.20709141041339074  0.5765347028705612  0.9929395620583321  1.0000
  C   C38       1.0  0.13902590526416891  0.5110017198195598  0.9963819064566689  1.0000
  I   I1        1.0  0.3209493292469707  0.7768183197016882  0.06735237827842355  1.0000
  H   H21       1.0  0.8796435312755574  0.3531413999339852  0.5374230732550358  1.0000
  H   H22       1.0  0.001104824073434816  0.4677577603473282  0.293183139800655  1.0000
  H   H23       1.0  0.00018082852339995907  0.4705292222434818  0.8757998377833083  1.0000
  H   H24       1.0  0.8191834164672271  0.2948345717908498  0.09420561635747804  1.0000
  H   H25       1.0  0.8797489707605447  0.3528241354230871  0.6445059750521378  1.0000
  H   H26       1.0  0.049261440342375014  0.6796512893749953  0.2245387242634045  1.0000
  H   H27       1.0  0.16950547799162097  0.7931387194955477  0.2181678230046662  1.0000
  H   H28       1.0  0.25122640284211856  0.5480570741022825  0.9283673542872869  1.0000
  H   H29       1.0  0.132000282175947  0.43151710038368396  0.9348108268863046  1.0000
  Zn  Zn1       1.0  0.8230723761119454  0.38200249179022383  0.587511370444901  1.0000
  Zn  Zn2       1.0  0.9884474746775177  0.37400336257208605  0.591628988922343  1.0000
  C   C39       1.0  0.9057852077905458  0.37276194019375414  0.8267683185818212  1.0000
  C   C40       1.0  0.9057364485962153  0.38324546554882605  0.35237221261379137  1.0000
  C   C41       1.0  0.9057149194976365  0.615218114224281  0.5843080336631671  1.0000
  C   C42       1.0  0.9058066807557568  0.1407877337857428  0.5948325659401873  1.0000
  O   O3        1.0  0.9684984273883784  0.38192738156252104  0.4023201945043484  1.0000
  O   O4        1.0  0.9685391024378158  0.36800789048606863  0.7799451403535932  1.0000
  O   O5        1.0  0.9684814978586613  0.5637943578324549  0.58415672327322  1.0000
  O   O6        1.0  0.9685559755252898  0.18614092626428191  0.5981085128012614  1.0000
  O   O7        1.0  0.8429638188297676  0.5698649308291539  0.5810318451540097  1.0000
  O   O8        1.0  0.8430214231078845  0.3740800239464498  0.776820192414668  1.0000
  O   O9        1.0  0.842980747969698  0.3879994702019125  0.3991936851776526  1.0000
  O   O10       1.0  0.8430382961144469  0.19221300558665155  0.5949821008460531  1.0000
