data_image0
_chemical_formula_structural       NC9NC3OH6C6NCH9C6SCH6Zn2C4O8
_chemical_formula_sum              "N3 C30 O9 H21 S1 Zn2"
_cell_length_a       15.78231758774541
_cell_length_b       9.273386996610926
_cell_length_c       10.302812801239593
_cell_angle_alpha    85.46621381537472
_cell_angle_beta     90.08384720459999
_cell_angle_gamma    89.03191128213776

_space_group_name_H-M_alt    "P 1"
_space_group_IT_number       1

loop_
  _space_group_symop_operation_xyz
  'x, y, z'

loop_
  _atom_site_type_symbol
  _atom_site_label
  _atom_site_symmetry_multiplicity
  _atom_site_fract_x
  _atom_site_fract_y
  _atom_site_fract_z
  _atom_site_occupancy
  N   N1        1.0  0.7882018986105008  0.5700786426079063  0.5679974747550638  1.0000
  C   C1        1.0  0.7402315424589299  0.47890990584470505  0.5922072356800809  1.0000
  C   C2        1.0  0.6806743980642327  0.3657473429570801  0.6222577839553034  1.0000
  C   C3        1.0  0.7012127608211665  0.22359692811852377  0.6599267306708849  1.0000
  C   C4        1.0  0.6249066160763206  0.1547052724775979  0.6782571042993688  1.0000
  C   C5        1.0  0.5624777893789024  0.2599128484276938  0.6504190397037188  1.0000
  C   C6        1.0  0.4695066456836527  0.2404615755851451  0.6556576094745059  1.0000
  C   C7        1.0  0.41502675716268994  0.3597275498078453  0.6239346945409274  1.0000
  C   C8        1.0  0.3269185354924313  0.34377797240990077  0.6282373545865669  1.0000
  C   C9        1.0  0.2717207705629613  0.46651405202166457  0.5955832011756501  1.0000
  N   N2        1.0  0.2273547598807653  0.5651780249218241  0.5693321876594455  1.0000
  C   C10       1.0  0.2926100087504885  0.20838491011810367  0.6643121759202497  1.0000
  C   C11       1.0  0.3461574456546956  0.08936551494466304  0.6959738603313594  1.0000
  C   C12       1.0  0.4340827045448878  0.10487693186751046  0.6917881297678061  1.0000
  O   O1        1.0  0.598168041347872  0.3845975015361686  0.6173298864648737  1.0000
  H   H1        1.0  0.7639685103070439  0.17565870866008915  0.6725792173180292  1.0000
  H   H2        1.0  0.6168723529711655  0.041429319455678064  0.7082897195016118  1.0000
  H   H3        1.0  0.4409831120202202  0.46508735943190777  0.5958573668572467  1.0000
  H   H4        1.0  0.2245769424665282  0.1948764469050912  0.667954183478277  1.0000
  H   H5        1.0  0.3194663374199772  0.9847259996584385  0.7238596602925174  1.0000
  H   H6        1.0  0.4737499372824185  0.010605189145330035  0.7168746608247094  1.0000
  C   C13       1.0  0.010388156165680455  0.14394523248459823  0.5693107285761487  1.0000
  C   C14       1.0  0.025267012606630546  0.22725480317465463  0.4519686000012657  1.0000
  C   C15       1.0  0.03216729385659997  0.16267491984153223  0.33459496613577255  1.0000
  C   C16       1.0  0.024293100941591414  0.01246212521050882  0.3315622707367072  1.0000
  C   C17       1.0  0.01090755519405029  0.9281729760023951  0.44850116051069966  1.0000
  C   C18       1.0  0.005176637961474157  0.9913002454531259  0.5680302108243722  1.0000
  N   N3        1.0  0.03047704245587089  0.9428538111607372  0.21176273198180054  1.0000
  C   C19       1.0  0.044593403399520976  0.020592788908689205  0.08511325255580315  1.0000
  H   H7        1.0  0.02770034365988083  0.4058967482784425  0.7825106757970859  1.0000
  H   H8        1.0  0.029589074907596886  0.34385246584314055  0.45038893196126906  1.0000
  H   H9        1.0  0.04285360391006107  0.23115779326039454  0.2464402477432062  1.0000
  H   H10       1.0  0.006907863663174308  0.8118165399450926  0.4464409063832355  1.0000
  H   H11       1.0  0.03637663464484486  0.859590107072271  0.8843372722297258  1.0000
  H   H12       1.0  0.024486176137493255  0.8305535417122915  0.21443671021285993  1.0000
  H   H13       1.0  0.9920618851614296  0.09975256209901272  0.06239633501052544  1.0000
  H   H14       1.0  0.10592695755017151  0.07746010346984633  0.0855091594058639  1.0000
  H   H15       1.0  0.04672957018889301  0.9431323619241497  0.008260341667381654  1.0000
  C   C20       1.0  0.007782431150281647  0.5676227558450224  0.18742199666399606  1.0000
  C   C21       1.0  0.9783200917536087  0.711821597888304  0.17592042765402605  1.0000
  C   C22       1.0  0.963443409405734  0.7833600263380351  0.053221682435884876  1.0000
  C   C23       1.0  0.9783200162919079  0.7118214472876243  0.9407692579614815  1.0000
  C   C24       1.0  0.007782376246142637  0.5676227467353847  0.9499189001411796  1.0000
  C   C25       1.0  0.022343545065419253  0.49621568079889  0.07378364744593946  1.0000
  S   S1        1.0  0.9259742900932311  0.9677002534597735  0.040021949328226114  1.0000
  C   C26       1.0  0.8148215633648113  0.9185354280548904  0.04327150188208683  1.0000
  H   H16       1.0  0.9666164909305108  0.769097801394083  0.26191861102603453  1.0000
  H   H17       1.0  0.9666163225556501  0.769097595453688  0.8465682978424041  1.0000
  H   H18       1.0  0.04505384607617844  0.384979329206651  0.08174886627129174  1.0000
  H   H19       1.0  0.8001902376138386  0.8545190517520835  0.9596765084039829  1.0000
  H   H20       1.0  0.8001905915728963  0.8545205058049671  0.1359111993369746  1.0000
  H   H21       1.0  0.7749905548211095  0.018557931135374968  0.03606530724868562  1.0000
  Zn  Zn1       1.0  0.9149319482060998  0.5686605763314361  0.5683901409916685  1.0000
  Zn  Zn2       1.0  0.10062475421496875  0.5665843156812536  0.568950152184265  1.0000
  C   C27       1.0  0.007815848661195448  0.5618750482700847  0.8057993521000321  1.0000
  C   C28       1.0  0.007742870323315334  0.5733716414997592  0.33154107186631987  1.0000
  C   C29       1.0  0.006157378720071051  0.8311321737424514  0.5630986846844732  1.0000
  C   C30       1.0  0.009401287561559005  0.30411278331254943  0.5742418109271383  1.0000
  O   O2        1.0  0.07819908419495264  0.5745067955717742  0.38012128088950825  1.0000
  O   O3        1.0  0.07829618460542265  0.5591629719800286  0.7576438065311464  1.0000
  O   O4        1.0  0.07695599919173784  0.7765915166417225  0.5616612953135529  1.0000
  O   O5        1.0  0.07953920618078997  0.35707826193957226  0.5761036945564986  1.0000
  O   O6        1.0  0.9360174328724279  0.7781666307832138  0.5612365984214993  1.0000
  O   O7        1.0  0.9373576076211414  0.5607398195464592  0.7572190377958976  1.0000
  O   O8        1.0  0.9372605075763546  0.5760835928603432  0.3796949513228891  1.0000
  O   O9        1.0  0.9386006296221879  0.3586550489087455  0.5756774623425474  1.0000
