data_image0
_chemical_formula_structural       NC9NC3OCH8C12ClH9C12ClH9Zn2C4O8
_chemical_formula_sum              "N2 C41 O9 H26 Cl2 Zn2"
_cell_length_a       17.728193572023454
_cell_length_b       10.299768534541528
_cell_length_c       10.299771906710086
_cell_angle_alpha    85.54593327708469
_cell_angle_beta     90.71328065090168
_cell_angle_gamma    88.4716702258364

_space_group_name_H-M_alt    "P 1"
_space_group_IT_number       1

loop_
  _space_group_symop_operation_xyz
  'x, y, z'

loop_
  _atom_site_type_symbol
  _atom_site_label
  _atom_site_symmetry_multiplicity
  _atom_site_fract_x
  _atom_site_fract_y
  _atom_site_fract_z
  _atom_site_occupancy
  N   N1        1.0  0.7107265233715236  0.3873137423272275  0.5852353913162989  1.0000
  C   C1        1.0  0.6501055590844858  0.3498826586367656  0.5982390270936886  1.0000
  C   C2        1.0  0.5746408121982762  0.3033508207210651  0.6144232206194308  1.0000
  C   C3        1.0  0.5627096440616868  0.17531273228626887  0.6238377401427098  1.0000
  C   C4        1.0  0.48598756119503794  0.12585783431283004  0.6387862777007727  1.0000
  C   C5        1.0  0.4278627973240446  0.20852062018033113  0.6562601677643097  1.0000
  C   C6        1.0  0.3498042347322981  0.1634671252325435  0.677992540406865  1.0000
  C   C7        1.0  0.2884820357874938  0.24894460716885813  0.6425344991495259  1.0000
  C   C8        1.0  0.21419877499079343  0.2096366730699433  0.6626809212984115  1.0000
  C   C9        1.0  0.15189829300033036  0.2976515342102808  0.6251486275778605  1.0000
  N   N2        1.0  0.10182211303613772  0.36840695489082487  0.5949762112699568  1.0000
  C   C10       1.0  0.2006063188781697  0.0847310891992974  0.7193394758370635  1.0000
  C   C11       1.0  0.26103006801457274  0.9995707262068152  0.7562061081496678  1.0000
  C   C12       1.0  0.3352095783652196  0.03838900518710941  0.7361892485064928  1.0000
  O   O1        1.0  0.4412543354557139  0.3423037925360948  0.6549710203787722  1.0000
  C   C13       1.0  0.5089892614951769  0.3996976217103614  0.60636377805818  1.0000
  H   H1        1.0  0.6096182323777837  0.10585411809398339  0.6217332537206324  1.0000
  H   H2        1.0  0.478307638163975  0.022211414721911904  0.6367987805604745  1.0000
  H   H3        1.0  0.298394300077258  0.3457813935715429  0.5981121143237244  1.0000
  H   H4        1.0  0.14338505972051452  0.05343857495289406  0.7354782839804854  1.0000
  H   H5        1.0  0.2503813225575001  0.903392652354399  0.8010896645870232  1.0000
  H   H6        1.0  0.3807260132324266  0.9711500705658895  0.7686065332727812  1.0000
  H   H7        1.0  0.49951930983712883  0.43565775710492033  0.5028383418974323  1.0000
  H   H8        1.0  0.5218989385942686  0.4840645805533492  0.662950604139238  1.0000
  C   C14       1.0  0.9062067689187611  0.9964982272976315  0.5901019990706395  1.0000
  C   C15       1.0  0.9111642091952735  0.005863510171808522  0.4537567413535728  1.0000
  C   C16       1.0  0.9137487332806625  0.8934660968708731  0.38467871072393955  1.0000
  C   C17       1.0  0.9113083412121242  0.7705688204766875  0.4537758211097949  1.0000
  C   C18       1.0  0.9063491256402013  0.7592120944061211  0.5901209725608666  1.0000
  C   C19       1.0  0.9038266671245121  0.8727327623575787  0.6575205416162907  1.0000
  C   C20       1.0  0.9189942952052961  0.9044274047254338  0.24043681934627542  1.0000
  C   C21       1.0  0.8760555651839647  6.468729111275997e-05  0.16490367003481343  1.0000
  C   C22       1.0  0.8810600763919834  0.010182734879157444  0.029148762140795315  1.0000
  C   C23       1.0  0.9289302833267764  0.9251896518957055  0.967233329138507  1.0000
  C   C24       1.0  0.9718565048822325  0.8298656530212336  0.04125494856189915  1.0000
  C   C25       1.0  0.9669860085267122  0.8193488712873386  0.1770278375379255  1.0000
  Cl  Cl1       1.0  0.9351251015074353  0.9381343559246968  0.7969028677115757  1.0000
  H   H9        1.0  0.9042790193037233  0.3203852166266789  0.6420520365176746  1.0000
  H   H10       1.0  0.914068727911903  0.10075062886460026  0.4010965689696831  1.0000
  H   H11       1.0  0.9122434515474069  0.6837050524042905  0.4008530427017267  1.0000
  H   H12       1.0  0.9000014658856679  0.8647397259613534  0.7627046125523105  1.0000
  H   H13       1.0  0.904489479717198  0.4274294503022163  0.6420805072025966  1.0000
  H   H14       1.0  0.8379042194035734  0.06587152055180434  0.2106968533560989  1.0000
  H   H15       1.0  0.8475490915668612  0.08393281387790208  0.9722024423936353  1.0000
  H   H16       1.0  0.009166089706337704  0.7640533838336674  0.9937513243890966  1.0000
  H   H17       1.0  0.0014544595207948148  0.7458462441637452  0.2325037013999176  1.0000
  C   C26       1.0  0.9062420452422555  0.3779632344158197  0.20874134875134476  1.0000
  C   C27       1.0  0.974703497625404  0.44353603344832027  0.2041201901477836  1.0000
  C   C28       1.0  0.009430252063014063  0.47665236687285445  0.08464918847172109  1.0000
  C   C29       1.0  0.9747762536399077  0.443317355597695  0.968852221606302  1.0000
  C   C30       1.0  0.906313831460708  0.37774716331929353  0.9714817001469154  1.0000
  C   C31       1.0  0.8724304609458517  0.34543644878115387  0.09190385241560373  1.0000
  C   C32       1.0  0.08185726099752277  0.5460215004295643  0.08081414791082997  1.0000
  C   C33       1.0  0.0938034132830261  0.6484483566558945  0.16091587654391049  1.0000
  C   C34       1.0  0.16200739582226809  0.713637986792372  0.1571197211563644  1.0000
  C   C35       1.0  0.21903919512617742  0.6774103290414859  0.07355143793689667  1.0000
  C   C36       1.0  0.20781363674359699  0.5758080975641855  0.9935964693877022  1.0000
  C   C37       1.0  0.1396772578332215  0.5104148789004399  0.9970186732498593  1.0000
  Cl  Cl2       1.0  0.30456617727975055  0.7593252946932965  0.06902375678996342  1.0000
  H   H18       1.0  0.8801349047734777  0.3530349814770519  0.5379506854248141  1.0000
  H   H19       1.0  0.0017079847625769428  0.46742987992172846  0.29377409381147457  1.0000
  H   H20       1.0  0.0007872328023661472  0.4702007879629529  0.876391068886514  1.0000
  H   H21       1.0  0.8196151433879791  0.29485119480629596  0.09470064967232927  1.0000
  H   H22       1.0  0.8802408725654852  0.3527152893337082  0.6450341335589354  1.0000
  H   H23       1.0  0.05006053540835142  0.6792159441879917  0.22520091320798485  1.0000
  H   H24       1.0  0.17036647489370882  0.7925072559788627  0.21896314261902017  1.0000
  H   H25       1.0  0.2519012991622377  0.5471709732893528  0.9289764885686163  1.0000
  H   H26       1.0  0.13257063254800827  0.43094478825572186  0.935425970108553  1.0000
  Zn  Zn1       1.0  0.8235882739403113  0.38185417946644984  0.5880538811946536  1.0000
  Zn  Zn2       1.0  0.988960387085376  0.3738559112112097  0.5921683588300211  1.0000
  C   C38       1.0  0.9062976202972465  0.37261447679225596  0.8273072444501848  1.0000
  C   C39       1.0  0.9062528469045908  0.3830971650980927  0.35291516801218475  1.0000
  C   C40       1.0  0.9063178394109994  0.6150446278405834  0.584942137686822  1.0000
  C   C41       1.0  0.9062325710762104  0.14066545648532625  0.5952803425715132  1.0000
  O   O2        1.0  0.9690143260782806  0.3817791923766614  0.40286264147879014  1.0000
  O   O3        1.0  0.9690497483323955  0.3678609693766077  0.7804821904346065  1.0000
  O   O4        1.0  0.969065229643663  0.5636264228305607  0.5847706309344908  1.0000
  O   O5        1.0  0.9689987883292814  0.18601375096961625  0.5985741022001595  1.0000
  O   O6        1.0  0.8435498162630196  0.569696342438875  0.5816481364136151  1.0000
  O   O7        1.0  0.8435343352329937  0.37393244928019254  0.7773596267068652  1.0000
  O   O8        1.0  0.8434989128736493  0.3878506274650649  0.3997385163453855  1.0000
  O   O9        1.0  0.8434833751289953  0.19208517674194384  0.5954500744346016  1.0000
