data_image0
_chemical_formula_structural       NC9NC3OH6C7OCH10C9H10Zn2C4O8
_chemical_formula_sum              "N2 C33 O10 H26 Zn2"
_cell_length_a       15.78231758774541
_cell_length_b       10.30083208314754
_cell_length_c       9.272679976505534
_cell_angle_alpha    86.00090220550724
_cell_angle_beta     90.48255963298988
_cell_angle_gamma    89.62603918792362

_space_group_name_H-M_alt    "P 1"
_space_group_IT_number       1

loop_
  _space_group_symop_operation_xyz
  'x, y, z'

loop_
  _atom_site_type_symbol
  _atom_site_label
  _atom_site_symmetry_multiplicity
  _atom_site_fract_x
  _atom_site_fract_y
  _atom_site_fract_z
  _atom_site_occupancy
  N   N1        1.0  0.7913272021905597  0.4017151971328139  0.4118925742048925  1.0000
  C   C1        1.0  0.7429098049784489  0.31985130357675584  0.43865516503526325  1.0000
  C   C2        1.0  0.6827977755425692  0.21823831565705887  0.47187443443898464  1.0000
  C   C3        1.0  0.7026387555951434  0.09059539325262889  0.5135150354401192  1.0000
  C   C4        1.0  0.6259949676826556  0.02873523241803011  0.5337784617080166  1.0000
  C   C5        1.0  0.5640824699342576  0.12320593364985923  0.5030054774198712  1.0000
  C   C6        1.0  0.47101627823790526  0.1057404785490268  0.508796803735694  1.0000
  C   C7        1.0  0.41712096996753206  0.2128335400120782  0.47372856318845113  1.0000
  C   C8        1.0  0.32893484346805685  0.19851234280591146  0.47848526118342294  1.0000
  C   C9        1.0  0.2743386303115416  0.30872126651339715  0.4423875374311845  1.0000
  N   N2        1.0  0.23045618384477018  0.39731501199505836  0.4133681954442531  1.0000
  C   C10       1.0  0.2939629707325856  0.0769387073841894  0.51836464953196  1.0000
  C   C11       1.0  0.34692705561451637  0.9700670926520035  0.5533652243918921  1.0000
  C   C12       1.0  0.4349280734344793  0.9839948534296873  0.5487377885604883  1.0000
  O   O1        1.0  0.6003841998521984  0.23516521534341228  0.46642729937336735  1.0000
  H   H1        1.0  0.7651590935795021  0.047549214130251816  0.5275012905056624  1.0000
  H   H2        1.0  0.6174050470683385  0.92702004291365  0.5669776654158454  1.0000
  H   H3        1.0  0.44359350436209205  0.30743934739478496  0.44269008630471895  1.0000
  H   H4        1.0  0.22586391354626462  0.06480938060165696  0.5223909692185023  1.0000
  H   H5        1.0  0.3197232986219127  0.8761080630535402  0.5841919763826937  1.0000
  H   H6        1.0  0.4741332874476732  0.8993450742653647  0.5764698671156372  1.0000
  C   C13       1.0  0.010920004304634691  0.018179186068659092  0.41278175115080407  1.0000
  C   C14       1.0  0.9867394225735684  0.026774156514546732  0.26631139501340545  1.0000
  C   C15       1.0  0.9735765906817487  0.9139678581956132  0.1929897417234241  1.0000
  C   C16       1.0  0.9866767102354855  0.7915130859680266  0.265930270415226  1.0000
  C   C17       1.0  0.010871545074339068  0.7808410547888115  0.4124915250254  1.0000
  C   C18       1.0  0.022652867873613095  0.8947094159931684  0.48513926867481477  1.0000
  C   C19       1.0  0.9501290055370895  0.9243294179031566  0.03521677175048632  1.0000
  O   O2        1.0  0.02505325639467172  0.9288961455496908  0.9530524739030652  1.0000
  C   C20       1.0  0.00389368939996171  0.9386599255117088  0.8046578004686578  1.0000
  H   H7        1.0  0.02114208779168102  0.3423032599716298  0.4684534717315789  1.0000
  H   H8        1.0  0.9780611154487647  0.12112802811974065  0.20864821668693298  1.0000
  H   H9        1.0  0.9779545810586522  0.7047180850988487  0.20800544749107375  1.0000
  H   H10       1.0  0.04130916078246938  0.8873176446373677  0.5980993391872649  1.0000
  H   H11       1.0  0.05744083035112221  0.5534770299188874  0.6885317022283008  1.0000
  H   H12       1.0  0.91101961363581  0.013817575925109345  0.01098407703436743  1.0000
  H   H13       1.0  0.9110522908310051  0.8387253829817988  0.010653612535051591  1.0000
  H   H14       1.0  0.06332890954324343  0.9421428456691333  0.7415341074765256  1.0000
  H   H15       1.0  0.9676802092973253  0.029712714136324706  0.7744717645112371  1.0000
  H   H16       1.0  0.9676934844299192  0.8522279733604664  0.7741145540113314  1.0000
  C   C21       1.0  0.009178035010336762  0.396460940677787  0.9892693471523701  1.0000
  C   C22       1.0  0.06676529611283266  0.31555790067195844  0.06975962791480894  1.0000
  C   C23       1.0  0.12852450044191932  0.24513604616092088  0.001392693393025948  1.0000
  C   C24       1.0  0.13478485219241088  0.2533007211914349  0.850548349927168  1.0000
  C   C25       1.0  0.07618065230513427  0.3324515454123689  0.7686710456080879  1.0000
  C   C26       1.0  0.01261347462668949  0.4025593223180035  0.8360039534580389  1.0000
  C   C27       1.0  0.2044460271977111  0.1743778785652921  0.7846639397137535  1.0000
  C   C28       1.0  0.18427417127605283  0.11515183660919104  0.6425188902270711  1.0000
  C   C29       1.0  0.24386403381798072  0.2308290178458261  0.6448564355071964  1.0000
  H   H17       1.0  0.8815929751442985  0.48553840439741514  0.2617581233102657  1.0000
  H   H18       1.0  0.06542434897375554  0.3090210080912619  0.18683221522900162  1.0000
  H   H19       1.0  0.17239227249486988  0.18468464372452198  0.0671953284245139  1.0000
  H   H20       1.0  0.07807564402923113  0.338046299580254  0.651896374626106  1.0000
  H   H21       1.0  0.8202405080398538  0.526651146177947  0.7206083417727618  1.0000
  H   H22       1.0  0.24873451672506863  0.11551774388632818  0.8570212520918064  1.0000
  H   H23       1.0  0.12133547620227775  0.13794250837461153  0.5926173679069562  1.0000
  H   H24       1.0  0.21719132014340803  0.021336174297983405  0.6283710584676383  1.0000
  H   H25       1.0  0.21716364897667206  0.3238273500635407  0.5962583071571377  1.0000
  H   H26       1.0  0.31161874606417417  0.20461299410682374  0.6320710040575912  1.0000
  Zn  Zn1       1.0  0.918050370914656  0.400441989987504  0.4123267266262014  1.0000
  Zn  Zn2       1.0  0.10373303511887316  0.3985777054680639  0.41294583250088296  1.0000
  C   C30       1.0  0.011962550110500738  0.39623336959966005  0.6759549023855018  1.0000
  C   C31       1.0  0.009822884041903008  0.4027879449949623  0.14931780438235998  1.0000
  C   C32       1.0  0.010853011531005255  0.6366403957126414  0.4068012582430063  1.0000
  C   C33       1.0  0.010932359671930625  0.16237935990410435  0.4184715257709196  1.0000
  O   O3        1.0  0.08050490500000124  0.40419819393104417  0.2032664782984781  1.0000
  O   O4        1.0  0.08220937325745353  0.39340718922314166  0.6224757008600237  1.0000
  O   O5        1.0  0.08131246299469902  0.5875389235052129  0.40513222522714853  1.0000
  O   O6        1.0  0.08140175146266393  0.21006646879599988  0.42060984561847786  1.0000
  O   O7        1.0  0.940381591206454  0.5889532272971165  0.40466271328975223  1.0000
  O   O8        1.0  0.9412785010542658  0.39482305263046874  0.6220061114577093  1.0000
  O   O9        1.0  0.9395740258233316  0.40561399960179734  0.2027951555631835  1.0000
  O   O10       1.0  0.9404708727216746  0.2114822659572737  0.42013863097720483  1.0000
