data_image0
_chemical_formula_structural       NC10NC2SH6C10IC2H9C6OCH8Zn2C4O8
_chemical_formula_sum              "N2 C35 S1 H23 I1 O9 Zn2"
_cell_length_a       18.726821288119407
_cell_length_b       10.299770258652044
_cell_length_c       10.300312196595934
_cell_angle_alpha    85.55987726118238
_cell_angle_beta     90.00173776366738
_cell_angle_gamma    90.7344844494229

_space_group_name_H-M_alt    "P 1"
_space_group_IT_number       1

loop_
  _space_group_symop_operation_xyz
  'x, y, z'

loop_
  _atom_site_type_symbol
  _atom_site_label
  _atom_site_symmetry_multiplicity
  _atom_site_fract_x
  _atom_site_fract_y
  _atom_site_fract_z
  _atom_site_occupancy
  N   N1        1.0  0.6726227475111426  0.43674484154116383  0.5663678903139788  1.0000
  C   C1        1.0  0.6133645769173125  0.40339157119113883  0.5691878471678085  1.0000
  C   C2        1.0  0.5398252436891425  0.3620047607682053  0.572686671674973  1.0000
  C   C3        1.0  0.5154866552866667  0.23402873655744044  0.5824235227820029  1.0000
  C   C4        1.0  0.4408607319997479  0.22298945079485089  0.5833039939807507  1.0000
  C   C5        1.0  0.4062498678382281  0.3428389300584307  0.5742933871581213  1.0000
  C   C6        1.0  0.3278971497673924  0.36407455773188696  0.5725609131422762  1.0000
  C   C7        1.0  0.2794885805457995  0.2607229648813447  0.6046322741987646  1.0000
  C   C8        1.0  0.205872897630655  0.2818633490368876  0.602760738195081  1.0000
  C   C9        1.0  0.179464364328011  0.4063272064911858  0.5690322044345286  1.0000
  C   C10       1.0  0.10366139920352989  0.427892316638657  0.5671675457929584  1.0000
  N   N2        1.0  0.0427223741687746  0.445228869218558  0.56566831200659  1.0000
  C   C11       1.0  0.22696787935960466  0.5098002891853968  0.5373192718837076  1.0000
  C   C12       1.0  0.3006014018090586  0.48898884482846317  0.5391569478730605  1.0000
  S   S1        1.0  0.4695661713256808  0.4615899619285246  0.5649732343962239  1.0000
  H   H1        1.0  0.5503982064106924  0.1508383240847417  0.5883309971002222  1.0000
  H   H2        1.0  0.4137635247099004  0.1294551372168371  0.5890324888425478  1.0000
  H   H3        1.0  0.2979874106390032  0.16358268459439973  0.6324985696340233  1.0000
  H   H4        1.0  0.16955730614534284  0.2010832628777643  0.6279348948378454  1.0000
  H   H5        1.0  0.2071143459967638  0.6066420145657332  0.5110542214454532  1.0000
  H   H6        1.0  0.3359615237657456  0.570899628363486  0.5135967758890705  1.0000
  C   C13       1.0  0.8576086760533355  0.05962011252029417  0.5660151311145496  1.0000
  C   C14       1.0  0.8629013800025152  0.06930752108880678  0.4296188462650295  1.0000
  C   C15       1.0  0.8656516705870786  0.9570784921908618  0.3605147717978505  1.0000
  C   C16       1.0  0.8630374338399404  0.83402284451377  0.42963620404414055  1.0000
  C   C17       1.0  0.8577432637723157  0.8223436894366308  0.5660323236679057  1.0000
  C   C18       1.0  0.855058923525431  0.9357000176751274  0.6334580461503343  1.0000
  C   C19       1.0  0.8712513323498887  0.9683803066659517  0.216220701757023  1.0000
  C   C20       1.0  0.9169449517657591  0.8865940538080735  0.1521920896687794  1.0000
  C   C21       1.0  0.9221435054052316  0.8974416990379916  0.016371432126464965  1.0000
  C   C22       1.0  0.8818560383807503  0.9897836993902934  0.9429347447039178  1.0000
  I   I1        1.0  0.889805550090808  0.005828403660666834  0.7380659661520106  1.0000
  C   C23       1.0  0.8362934211890766  0.07147872493935759  0.005444438425172175  1.0000
  C   C24       1.0  0.8309517652616234  0.061053147258029794  0.14124683807291682  1.0000
  H   H7        1.0  0.8555594751334566  0.38338174398288255  0.6179843583708011  1.0000
  H   H8        1.0  0.8658825151345492  0.16438726908343426  0.37692581433218764  1.0000
  H   H9        1.0  0.8641555096157622  0.7472161483694701  0.3767061059502894  1.0000
  H   H10       1.0  0.8509751960568984  0.9274583793398704  0.7386814513456434  1.0000
  H   H11       1.0  0.8557576433065055  0.49044020219142104  0.6180094962563891  1.0000
  H   H12       1.0  0.9493201468130459  0.8154676121061388  0.2072057341493498  1.0000
  H   H13       1.0  0.957634323761962  0.8342495023126397  0.9683107016734938  1.0000
  H   H14       1.0  0.8048629980982083  0.14286608150118243  0.9488659531601006  1.0000
  H   H15       1.0  0.7946461823290377  0.12424714946006231  0.1875188546659472  1.0000
  C   C25       1.0  0.8576558040660126  0.44099565760732773  0.18468163710514074  1.0000
  C   C26       1.0  0.787707405095281  0.4887983831608569  0.17992291479527633  1.0000
  C   C27       1.0  0.7525109548470603  0.5128517255361309  0.0599490841251229  1.0000
  C   C28       1.0  0.7877899352971649  0.4887420730298031  0.9447810849112287  1.0000
  C   C29       1.0  0.8576961547753574  0.4409681785766749  0.9473658090384296  1.0000
  C   C30       1.0  0.892265359523693  0.41734344386866623  0.06786210130553627  1.0000
  O   O1        1.0  0.6826905589603115  0.560567198896367  0.05089729645753427  1.0000
  C   C31       1.0  0.6402745683137191  0.5895545962835407  0.15942961404116174  1.0000
  H   H16       1.0  0.8843082420234826  0.42278236715278583  0.5139244728165335  1.0000
  H   H17       1.0  0.7608539834940733  0.507149991004276  0.2694973006794057  1.0000
  H   H18       1.0  0.7601335981063895  0.507642546737661  0.8530453891730541  1.0000
  H   H19       1.0  0.9462027693179925  0.3804826701512047  0.07072794232613044  1.0000
  H   H20       1.0  0.8841517598257972  0.4228888648589191  0.6209349301699891  1.0000
  H   H21       1.0  0.6315873071777973  0.5003783092812673  0.22554814836710887  1.0000
  H   H22       1.0  0.5876501543401995  0.6255181235445371  0.12394809486440761  1.0000
  H   H23       1.0  0.6667423851505394  0.6665798864259409  0.21268346836946941  1.0000
  Zn  Zn1       1.0  0.7794255060310129  0.4391896610882493  0.5661735083275912  1.0000
  Zn  Zn2       1.0  0.9359196046943048  0.44277338583106385  0.5658733383009156  1.0000
  C   C32       1.0  0.8576860120978786  0.4357996798465202  0.8032020433061764  1.0000
  C   C33       1.0  0.8576608078340344  0.44616504481282815  0.32884492753884875  1.0000
  C   C34       1.0  0.857713881386599  0.6781728212690675  0.560854253840116  1.0000
  C   C35       1.0  0.857632884873136  0.2037903418710127  0.5711927863059725  1.0000
  O   O2        1.0  0.9170511810113441  0.4492542775351951  0.3771135316680154  1.0000
  O   O3        1.0  0.9170710385863899  0.43542943157862507  0.7547052432304433  1.0000
  O   O4        1.0  0.9170927428728934  0.6311487901218815  0.5590076901518011  1.0000
  O   O5        1.0  0.9170294233204948  0.2535349270627351  0.5728109874814793  1.0000
  O   O6        1.0  0.7983156340010671  0.6284281186350422  0.5592358592426299  1.0000
  O   O7        1.0  0.7982939299829861  0.43271032038951884  0.7549333431158123  1.0000
  O   O8        1.0  0.7982740723648695  0.44653512114773075  0.37734007026146266  1.0000
  O   O9        1.0  0.7982523146746104  0.25081576138293915  0.5730376234357084  1.0000
