data_image0
_chemical_formula_structural       NC9NC3SH6C6NO2H5C8NH7Zn2C4O8
_chemical_formula_sum              "N4 C30 S1 H18 O10 Zn2"
_cell_length_a       16.77567553997237
_cell_length_b       9.273392599741053
_cell_length_c       9.274266800404108
_cell_angle_alpha    86.1050913810774
_cell_angle_beta     89.94189520236782
_cell_angle_gamma    90.29770283283837

_space_group_name_H-M_alt    "P 1"
_space_group_IT_number       1

loop_
  _space_group_symop_operation_xyz
  'x, y, z'

loop_
  _atom_site_type_symbol
  _atom_site_label
  _atom_site_symmetry_multiplicity
  _atom_site_fract_x
  _atom_site_fract_y
  _atom_site_fract_z
  _atom_site_occupancy
  N   N1        1.0  0.7484315694650998  0.587183273745721  0.4211781245039323  1.0000
  C   C1        1.0  0.6931675289339241  0.6422987858603301  0.46747464496087376  1.0000
  C   C2        1.0  0.6245840914217108  0.7106934888317586  0.5249250859550656  1.0000
  C   C3        1.0  0.6256986596830987  0.8092894127771812  0.6306503876881882  1.0000
  C   C4        1.0  0.5496324218975797  0.857821135711421  0.6657352288115306  1.0000
  C   C5        1.0  0.4883142165399418  0.7972283016028039  0.5872216908880028  1.0000
  C   C6        1.0  0.4016052084999361  0.8262598911835763  0.5993306955040649  1.0000
  C   C7        1.0  0.3455767742206595  0.7374059119616527  0.5344369775796665  1.0000
  C   C8        1.0  0.2637353679046062  0.7641963954201356  0.5453681900753713  1.0000
  C   C9        1.0  0.2070631913414521  0.6723677335892355  0.47891908117520443  1.0000
  N   N2        1.0  0.1615156671382947  0.5985506510014761  0.42550381457755937  1.0000
  C   C10       1.0  0.2370913531312929  0.880187691035871  0.6210150606272546  1.0000
  C   C11       1.0  0.2920293580247895  0.9692142151632865  0.6853968111623387  1.0000
  C   C12       1.0  0.3737093732796505  0.9428295071136791  0.6747934909500972  1.0000
  S   S1        1.0  0.5300375405033062  0.6830387691187543  0.4747395527649414  1.0000
  H   H1        1.0  0.6796775371480419  0.8450442855942704  0.6815310057661825  1.0000
  H   H2        1.0  0.5405799390926094  0.9338223026287772  0.7474681743619385  1.0000
  H   H3        1.0  0.36514493581593094  0.6467007837390479  0.4760189862038797  1.0000
  H   H4        1.0  0.1739442512861542  0.9018614686775037  0.6300407833684021  1.0000
  H   H5        1.0  0.2712859718425857  0.05923768659736162  0.7434608954483013  1.0000
  H   H6        1.0  0.4145219757580811  0.014974881673468504  0.7246349194936135  1.0000
  C   C13       1.0  0.9574112039037916  0.16939863372280195  0.42246004402605464  1.0000
  C   C14       1.0  0.9478366787519577  0.2514887097368698  0.2906804342838647  1.0000
  C   C15       1.0  0.9312070899163474  0.18497851478465496  0.16360501000785366  1.0000
  C   C16       1.0  0.9235986216911812  0.03436243974820963  0.16476365226509904  1.0000
  C   C17       1.0  0.9344208719925633  0.9511307516198263  0.2955511221367382  1.0000
  C   C18       1.0  0.9525436708288305  0.016324488678940416  0.4242344215646938  1.0000
  N   N3        1.0  0.905747214840455  0.9663693274849751  0.03344859304722125  1.0000
  O   O1        1.0  0.8958482680794305  0.04823012072897302  0.9053690277237041  1.0000
  O   O2        1.0  0.8987271259527563  0.832244630438495  0.033605210688862915  1.0000
  H   H7        1.0  0.9396317148157195  0.2480574317919868  0.776068512093198  1.0000
  H   H8        1.0  0.9513398007944213  0.36839537124576105  0.2864581872749481  1.0000
  H   H9        1.0  0.9234959513229404  0.25193649155898146  0.06445051829377202  1.0000
  H   H10       1.0  0.9305664157988113  0.8344302715216454  0.29653686164174164  1.0000
  H   H11       1.0  0.9432844965036226  0.719787756498517  0.663246290285846  1.0000
  C   C19       1.0  0.956828799763686  0.5897590725582661  4.911371524052249e-05  1.0000
  C   C20       1.0  0.9111027886482423  0.4852532338927167  0.08049726839043525  1.0000
  C   C21       1.0  0.8604890791828593  0.3918298145651937  0.011871908730615159  1.0000
  C   C22       1.0  0.8539048222365425  0.40145152947483526  0.86112622204271  1.0000
  C   C23       1.0  0.9007448851765796  0.5025399137999129  0.7793760517911301  1.0000
  C   C24       1.0  0.9531260495450005  0.5959640797679321  0.8466453453289291  1.0000
  C   C25       1.0  0.800193320829345  0.29923800804340006  0.7872648878392057  1.0000
  C   C26       1.0  0.8441135907090026  0.16859000745982633  0.7562255777217666  1.0000
  N   N4        1.0  0.8787826745871046  0.06547873529387326  0.7317256450057497  1.0000
  H   H12       1.0  0.04280964438483314  0.9095510588193214  0.0810688092528895  1.0000
  H   H13       1.0  0.9131807227974573  0.477840790466121  0.1975169543770945  1.0000
  H   H14       1.0  0.8257628336532808  0.3126848988953894  0.07658374302483283  1.0000
  H   H15       1.0  0.8976218810660994  0.5057447990537804  0.6624594440991922  1.0000
  H   H16       1.0  0.013926421734973495  0.808548739653939  0.551396553077375  1.0000
  H   H17       1.0  0.7771544999351843  0.3514142783362406  0.684368397405871  1.0000
  H   H18       1.0  0.748086755182548  0.2681702310314331  0.8568169463544937  1.0000
  Zn  Zn1       1.0  0.867638705501899  0.5904598642382943  0.42243475013985066  1.0000
  Zn  Zn2       1.0  0.04230854197285549  0.5952623834022  0.4242590019750534  1.0000
  C   C27       1.0  0.953857205116798  0.5890463500738065  0.6866085049110275  1.0000
  C   C28       1.0  0.9560919386710974  0.5966777705549151  0.16008541241735186  1.0000
  C   C29       1.0  0.953484756573361  0.8561952874796358  0.4181548575881817  1.0000
  C   C30       1.0  0.9564643372332617  0.3295270995281563  0.428539132338825  1.0000
  O   O3        1.0  0.022130970155662233  0.6008159886134044  0.21448733709494716  1.0000
  O   O4        1.0  0.0203885459959714  0.5885520420219568  0.6335907279386535  1.0000
  O   O5        1.0  0.020086888960508587  0.804278173953602  0.4168125021802358  1.0000
  O   O6        1.0  0.02243256800156157  0.3850898645666001  0.43126545417205686  1.0000
  O   O7        1.0  0.8875146198669743  0.8006323814365448  0.4154282973127408  1.0000
  O   O8        1.0  0.8878162672774914  0.584907981488479  0.6322064498424249  1.0000
  O   O9        1.0  0.8895586993588597  0.5971718651273038  0.2131013258266834  1.0000
  O   O10       1.0  0.8898602967881042  0.38144573155830813  0.42987955095499486  1.0000
