data_image0
_chemical_formula_structural       NC10NC2OCH8C7OClH5C7OIH5Zn2C4O8
_chemical_formula_sum              "N2 C31 O11 H18 Cl1 I1 Zn2"
_cell_length_a       19.251394670931877
_cell_length_b       10.298511985553573
_cell_length_c       10.297413674417344
_cell_angle_alpha    85.55149777868054
_cell_angle_beta     89.9652894728998
_cell_angle_gamma    90.08694222445864

_space_group_name_H-M_alt    "P 1"
_space_group_IT_number       1

loop_
  _space_group_symop_operation_xyz
  'x, y, z'

loop_
  _atom_site_type_symbol
  _atom_site_label
  _atom_site_symmetry_multiplicity
  _atom_site_fract_x
  _atom_site_fract_y
  _atom_site_fract_z
  _atom_site_occupancy
  N   N1        1.0  0.653894698675268  0.4235893144754814  0.5659450957147709  1.0000
  C   C1        1.0  0.5938165152264361  0.42001867720766217  0.5645880997599799  1.0000
  C   C2        1.0  0.5190388619177654  0.41558915951909065  0.562956154729142  1.0000
  C   C3        1.0  0.48565759960499044  0.3858347605724668  0.4552999466197787  1.0000
  C   C4        1.0  0.40936177073770286  0.379225251872835  0.45215423827155443  1.0000
  C   C5        1.0  0.3721301120040807  0.41581726495725935  0.5532732368985442  1.0000
  C   C6        1.0  0.2949801926259642  0.41704275350589826  0.5529844353674809  1.0000
  C   C7        1.0  0.2591198144791184  0.40294728902174004  0.6722777255569179  1.0000
  C   C8        1.0  0.18652258432104452  0.4046010992823459  0.6753739115236645  1.0000
  C   C9        1.0  0.1487145149646295  0.4213003983560746  0.5593216011629423  1.0000
  C   C10       1.0  0.0739694115896171  0.42316168541488014  0.5626229781962686  1.0000
  N   N2        1.0  0.013880384994999597  0.42465798346495043  0.5652769547506418  1.0000
  C   C11       1.0  0.1837879655746948  0.4368642607021316  0.44008510408552204  1.0000
  C   C12       1.0  0.2563951332196316  0.435150277840114  0.43667972274159844  1.0000
  O   O1        1.0  0.4072281071086282  0.455323341438608  0.6629913727778647  1.0000
  C   C13       1.0  0.4794122241169981  0.4306395316146494  0.6870748611031534  1.0000
  H   H1        1.0  0.5144021089821426  0.36721464389277103  0.36813955158529793  1.0000
  H   H2        1.0  0.38472505503458426  0.34591516466226824  0.3663895331102054  1.0000
  H   H3        1.0  0.28725323194152597  0.3894216345343804  0.7633626604051957  1.0000
  H   H4        1.0  0.15991056073505142  0.3928531989022979  0.7682976613064333  1.0000
  H   H5        1.0  0.1550213312597303  0.4510238456496276  0.3496992102555907  1.0000
  H   H6        1.0  0.281920623013064  0.450452759902243  0.34313813465040255  1.0000
  H   H7        1.0  0.5014910101065659  0.5120177586756907  0.738632980740556  1.0000
  H   H8        1.0  0.4845639800734897  0.33934875050634905  0.7511506888672991  1.0000
  C   C14       1.0  0.8338835592361893  0.0427104145263848  0.5656256967251421  1.0000
  C   C15       1.0  0.8947669189352818  0.04773996250697299  0.49022103920424187  1.0000
  C   C16       1.0  0.9257524492522204  0.9331884562568676  0.4518451987370287  1.0000
  C   C17       1.0  0.8947986166870576  0.8124828604460502  0.49018175925879476  1.0000
  C   C18       1.0  0.833898191126325  0.8055268689424911  0.5656075583485515  1.0000
  C   C19       1.0  0.803799451916115  0.9211422282200539  0.6028851966306963  1.0000
  C   C20       1.0  0.990148095735291  0.9407153685945104  0.3720907844892603  1.0000
  O   O2        1.0  0.017277767159286528  0.049593797231728395  0.3384889314620836  1.0000
  Cl  Cl1       1.0  0.031040745833899486  0.8006290985655685  0.3214478775799119  1.0000
  H   H9        1.0  0.8105955401996595  0.3682795520709201  0.5944677879646159  1.0000
  H   H10       1.0  0.9181563037764899  0.1412438923475583  0.4612529166126653  1.0000
  H   H11       1.0  0.9179315032007183  0.7234209645733278  0.4615314650310476  1.0000
  H   H12       1.0  0.7568328553499079  0.9164941822012531  0.6610543259140134  1.0000
  H   H13       1.0  0.8105419874316258  0.47534820367444436  0.5945315051152573  1.0000
  C   C21       1.0  0.8338365924463238  0.42417089467911917  0.1841643052414046  1.0000
  C   C22       1.0  0.7689252511507271  0.4865393278863035  0.17821221870703097  1.0000
  C   C23       1.0  0.7359578094886714  0.5182151747837349  0.05807394171411474  1.0000
  C   C24       1.0  0.7690503958923534  0.48641894628369925  0.9430241559320566  1.0000
  C   C25       1.0  0.8339451598137279  0.4240663939965495  0.9470690111940041  1.0000
  C   C26       1.0  0.8659407339739645  0.39332433208408557  0.06810036509830786  1.0000
  C   C27       1.0  0.6673162320569258  0.5841675835294451  0.054318599794474176  1.0000
  O   O3        1.0  0.6385880329597696  0.6117697023568756  0.15863523083506492  1.0000
  I   I1        1.0  0.6131137408823687  0.6362476933968072  0.8789673327180596  1.0000
  H   H14       1.0  0.9563944751163829  0.3064132015312331  0.402616419516346  1.0000
  H   H15       1.0  0.7439807009754975  0.5105067418781888  0.267569936709662  1.0000
  H   H16       1.0  0.7446042654619615  0.5099071382036586  0.8497623245963696  1.0000
  H   H17       1.0  0.9159772152235716  0.34524807071558494  0.07188153913398067  1.0000
  H   H18       1.0  0.8590679859175708  0.3999281193604634  0.6210788517783268  1.0000
  Zn  Zn1       1.0  0.7577787970630006  0.42389422723948034  0.5657597842453133  1.0000
  Zn  Zn2       1.0  0.9099962902794921  0.42434242809613565  0.5654729004053602  1.0000
  C   C28       1.0  0.8339229771057971  0.4189118713780886  0.8028637734850996  1.0000
  C   C29       1.0  0.8338537724965384  0.4293264276443842  0.3283690354882056  1.0000
  C   C30       1.0  0.8338911036860307  0.6613390328873572  0.5604347015848488  1.0000
  C   C31       1.0  0.83388559395506  0.1868977054888148  0.5707981767771999  1.0000
  O   O4        1.0  0.8916252835572579  0.4312210950934472  0.3766565894979855  1.0000
  O   O5        1.0  0.8916810212513676  0.4173563982234407  0.7543581073743115  1.0000
  O   O6        1.0  0.8916545045441205  0.6131193945741964  0.5585949180245204  1.0000
  O   O7        1.0  0.8916517483093052  0.23545810789439178  0.5724196815494837  1.0000
  O   O8        1.0  0.7761232870888268  0.6127785472896903  0.5588130031922569  1.0000
  O   O9        1.0  0.7761498038129577  0.4170171114337011  0.754576123244371  1.0000
  O   O10       1.0  0.7760940659419591  0.4308817632565201  0.37687304362683105  1.0000
  O   O11       1.0  0.7761205307048454  0.2351187667542307  0.5726362330676886  1.0000
