data_image0
_chemical_formula_structural       NC5OC5NC4H8C6BrH5C7ONH5Zn2C4O8
_chemical_formula_sum              "N3 C31 O10 H18 Br1 Zn2"
_cell_length_a       19.189071930511275
_cell_length_b       9.276564384272257
_cell_length_c       9.273042158839658
_cell_angle_alpha    86.1127255114725
_cell_angle_beta     90.07135709723086
_cell_angle_gamma    90.57707898574843

_space_group_name_H-M_alt    "P 1"
_space_group_IT_number       1

loop_
  _space_group_symop_operation_xyz
  'x, y, z'

loop_
  _atom_site_type_symbol
  _atom_site_label
  _atom_site_symmetry_multiplicity
  _atom_site_fract_x
  _atom_site_fract_y
  _atom_site_fract_z
  _atom_site_occupancy
  N   N1        1.0  0.6626824570473249  0.5612973120336442  0.40828920535366  1.0000
  C   C1        1.0  0.6084616327735266  0.6122936740777774  0.3879448683589562  1.0000
  C   C2        1.0  0.5410179101181728  0.6757246469784755  0.362639571075013  1.0000
  C   C3        1.0  0.5317597255310137  0.782165010149207  0.2499899050164989  1.0000
  C   C4        1.0  0.46624594544404696  0.8438626633826869  0.22554838516535547  1.0000
  C   C5        1.0  0.40932974519437815  0.7989891475608645  0.3122524634016801  1.0000
  O   O1        1.0  0.3446628095270287  0.8646928935500359  0.2852938095742026  1.0000
  C   C6        1.0  0.2793871429119451  0.7987720723782678  0.3116264522810007  1.0000
  C   C7        1.0  0.22307865559631213  0.885281587800202  0.3451372347606743  1.0000
  C   C8        1.0  0.15699569590468174  0.8239108669912041  0.3705226009760004  1.0000
  C   C9        1.0  0.1465573876550162  0.6752156683631361  0.36117039236185217  1.0000
  C   C10       1.0  0.07852786681195272  0.612013239511271  0.3871352880844986  1.0000
  N   N2        1.0  0.023836132847453506  0.5612006875128481  0.4080103965602879  1.0000
  C   C11       1.0  0.202389159062477  0.5883414323530308  0.32553187178555243  1.0000
  C   C12       1.0  0.2684635158839531  0.6497564586485995  0.3001948974967481  1.0000
  C   C13       1.0  0.4190765569910785  0.6935699941396996  0.42669745218950395  1.0000
  C   C14       1.0  0.48458145854698326  0.6318685004805049  0.45120709683046556  1.0000
  H   H1        1.0  0.5751290860677365  0.8175438367251422  0.18126880813564683  1.0000
  H   H2        1.0  0.4595497349277679  0.9262690320883507  0.13838769276406349  1.0000
  H   H3        1.0  0.23068833384898624  0.0003694854053377679  0.35233810842138946  1.0000
  H   H4        1.0  0.11410635988852819  0.8923360644564265  0.3972165452164276  1.0000
  H   H5        1.0  0.1947723363873659  0.47340519734431297  0.31658299060217093  1.0000
  H   H6        1.0  0.3106417145892777  0.5815231157362464  0.2697120036441292  1.0000
  H   H7        1.0  0.3764303851112329  0.6606375901238555  0.4981392336206943  1.0000
  H   H8        1.0  0.491290984408374  0.550638420425144  0.5395781905348538  1.0000
  C   C15       1.0  0.8411633606938171  0.13777249631414937  0.40851998929907235  1.0000
  C   C16       1.0  0.8321222589980346  0.21988706132157773  0.2767913983846478  1.0000
  C   C17       1.0  0.8295676994432748  0.15352469061694718  0.14628827554610835  1.0000
  C   C18       1.0  0.8360366779628404  0.00410266373059787  0.1450357346364577  1.0000
  C   C19       1.0  0.8438484325719976  0.9202741225058142  0.274773210390878  1.0000
  C   C20       1.0  0.8453618776973708  0.9847145447994816  0.4077920162038314  1.0000
  Br  Br1       1.0  0.8330538803810625  0.9138600654713116  0.9659622451176154  1.0000
  H   H9        1.0  0.8209249240290426  0.4027977404117138  0.642865335467668  1.0000
  H   H10       1.0  0.828681149991315  0.33651839146269125  0.27432649999689773  1.0000
  H   H11       1.0  0.8232211417357616  0.21868944899281084  0.04589453312799718  1.0000
  H   H12       1.0  0.8470701792943514  0.8040005570057783  0.2716631912590064  1.0000
  H   H13       1.0  0.8839932771200553  0.6891353366139839  0.6322486926849246  1.0000
  C   C21       1.0  0.842907289533561  0.5567867904151267  0.9848952095813215  1.0000
  C   C22       1.0  0.7789464139514857  0.565986876359604  0.0576175413144453  1.0000
  C   C23       1.0  0.7163131198884934  0.5891353542794956  0.9813899437927819  1.0000
  C   C24       1.0  0.7180184165720563  0.6013418211946923  0.8298794819809698  1.0000
  C   C25       1.0  0.7808279610145779  0.5900247809958634  0.7561504201264837  1.0000
  C   C26       1.0  0.843617966720123  0.5657002415684989  0.8314168726514588  1.0000
  C   C27       1.0  0.6497701654620751  0.5991084254674426  0.06129282119305169  1.0000
  O   O2        1.0  0.6448378825045304  0.5433042930735983  0.18871500088551457  1.0000
  N   N3        1.0  0.5908559473687169  0.6722844542005785  0.9977392448726229  1.0000
  H   H14       1.0  0.012256212980687353  0.6118245241783091  0.08467738613220677  1.0000
  H   H15       1.0  0.6706996137743093  0.6156127288061104  0.7672806820985558  1.0000
  H   H16       1.0  0.9577313174881941  0.5960799645580275  0.5483809660238538  1.0000
  H   H17       1.0  0.5945207096702971  0.7345561506996453  0.9000173036587477  1.0000
  H   H18       1.0  0.5437536790008456  0.6721347364617067  0.05401821097319771  1.0000
  Zn  Zn1       1.0  0.7669036032255928  0.561265668794213  0.40821706769961535  1.0000
  Zn  Zn2       1.0  0.9196149556793043  0.561220701960361  0.408094329076748  1.0000
  C   C28       1.0  0.8434535818136847  0.5582705249501927  0.6714110674727551  1.0000
  C   C29       1.0  0.8430666538331452  0.5642176663456239  0.1449004678676049  1.0000
  C   C30       1.0  0.8445598573528792  0.8245640152632592  0.40218601613846205  1.0000
  C   C31       1.0  0.8419603176599045  0.2979224442784858  0.41412559757711287  1.0000
  O   O3        1.0  0.9010732691545209  0.5666881802040015  0.1985531209540623  1.0000
  O   O4        1.0  0.901351343763207  0.5557647900410279  0.6176648446349597  1.0000
  O   O5        1.0  0.9022438952736942  0.7708001672204866  0.400263710209786  1.0000
  O   O6        1.0  0.9001806654944068  0.35165281221792255  0.41595414734135305  1.0000
  O   O7        1.0  0.7863378412976016  0.7708335585534869  0.4003572494693124  1.0000
  O   O8        1.0  0.7854452983082721  0.5557999131449345  0.6177583055535731  1.0000
  O   O9        1.0  0.7851672220420335  0.5667232348083282  0.19864484900130797  1.0000
  O   O10       1.0  0.7842746184186579  0.35168785764570504  0.41604598346078414  1.0000
