data_image0
_chemical_formula_structural       NC10NC2SH6C10ClC2H9C10SH8Zn2C4O8
_chemical_formula_sum              "N2 C38 S2 H23 Cl1 Zn2 O8"
_cell_length_a       18.726821288119407
_cell_length_b       10.299769246903262
_cell_length_c       10.297424231287907
_cell_angle_alpha    85.58145817024167
_cell_angle_beta     90.00908602816145
_cell_angle_gamma    90.73444235296577

_space_group_name_H-M_alt    "P 1"
_space_group_IT_number       1

loop_
  _space_group_symop_operation_xyz
  'x, y, z'

loop_
  _atom_site_type_symbol
  _atom_site_label
  _atom_site_symmetry_multiplicity
  _atom_site_fract_x
  _atom_site_fract_y
  _atom_site_fract_z
  _atom_site_occupancy
  N   N1        1.0  0.67251725637058  0.4362083161800167  0.5660152824079201  1.0000
  C   C1        1.0  0.6132593056932035  0.40285611168153407  0.5688357612843993  1.0000
  C   C2        1.0  0.5397202453251898  0.3614706237013696  0.5723352334608487  1.0000
  C   C3        1.0  0.5153824214691657  0.23349828411131576  0.5820738150221585  1.0000
  C   C4        1.0  0.4407565671008171  0.22245933135329965  0.5829544456964388  1.0000
  C   C5        1.0  0.406144994841184  0.34230540033338697  0.5739422454628025  1.0000
  C   C6        1.0  0.327792141359217  0.36354037293202346  0.5722094549209435  1.0000
  C   C7        1.0  0.2793859610096693  0.26020080703755344  0.6042883038732222  1.0000
  C   C8        1.0  0.2057701325461901  0.28134048415617396  0.6024164158221832  1.0000
  C   C9        1.0  0.17935908052075583  0.405791687776978  0.5686800958913232  1.0000
  C   C10       1.0  0.1035559701784618  0.42735609331279306  0.5668150893195363  1.0000
  N   N2        1.0  0.0426168283857853  0.4446920793675043  0.5653155757750445  1.0000
  C   C11       1.0  0.2268602328591005  0.5092528774887004  0.5369597663031592  1.0000
  C   C12       1.0  0.3004938982453862  0.4884421273953298  0.5387977876697394  1.0000
  S   S1        1.0  0.46946056802605834  0.4610529065596536  0.5646204152392963  1.0000
  H   H1        1.0  0.5502944387088707  0.1503101090543901  0.5879823080636492  1.0000
  H   H2        1.0  0.4136598170365207  0.1289271918307655  0.5886838561217345  1.0000
  H   H3        1.0  0.2978868697408065  0.16307097930721248  0.632161064173986  1.0000
  H   H4        1.0  0.16945641604648173  0.20056983834069175  0.6275964519668225  1.0000
  H   H5        1.0  0.20700473815173892  0.6060847491160908  0.5106886521728469  1.0000
  H   H6        1.0  0.3358521165097355  0.5703433258675785  0.5132316454220405  1.0000
  C   C13       1.0  0.857503312473431  0.05908358504220912  0.565660315081107  1.0000
  C   C14       1.0  0.8640813550104292  0.06873537936766394  0.42941507906174636  1.0000
  C   C15       1.0  0.8674827609821618  0.9564881630300831  0.3603890373677706  1.0000
  C   C16       1.0  0.8642169188300084  0.8334503369086573  0.4294367701027517  1.0000
  C   C17       1.0  0.8576376245966811  0.821806907778597  0.5656817336544958  1.0000
  C   C18       1.0  0.8543178533396615  0.9351811059451847  0.6330305390693621  1.0000
  C   C19       1.0  0.8744430167485462  0.9677519834036227  0.21625305140387518  1.0000
  C   C20       1.0  0.9207367426843388  0.8858497413025294  0.15366640890168126  1.0000
  C   C21       1.0  0.9272243581825561  0.8966459114386192  0.01799226151807587  1.0000
  C   C22       1.0  0.8876256777500191  0.9890854500263304  0.9432500672597389  1.0000
  Cl  Cl1       1.0  0.8958440079736446  0.002385350874731139  0.773044667395878  1.0000
  C   C23       1.0  0.8414678146355933  0.07091045227240778  0.004345269751311773  1.0000
  C   C24       1.0  0.8348535378735158  0.06050396786727674  0.1399993620695701  1.0000
  H   H7        1.0  0.8549694529380136  0.3828588590937547  0.6175732212026164  1.0000
  H   H8        1.0  0.8675588903807772  0.16379918062599308  0.37681042815269805  1.0000
  H   H9        1.0  0.8658340100117142  0.7466318860072233  0.3765359003856152  1.0000
  H   H10       1.0  0.8492429533734417  0.9269671032238593  0.7381373972091971  1.0000
  H   H11       1.0  0.8551643555268444  0.4899169668060218  0.6176035862236531  1.0000
  H   H12       1.0  0.9525881823244511  0.814661432076819  0.20972108064670397  1.0000
  H   H13       1.0  0.9631892058062292  0.8333029512002804  0.9711281094558889  1.0000
  H   H14       1.0  0.8105430546311385  0.14240942553018396  0.9468361639804529  1.0000
  H   H15       1.0  0.7981156584117164  0.12378446839643108  0.18513943907460217  1.0000
  C   C25       1.0  0.8575223810929601  0.4403164193867307  0.18423302606263833  1.0000
  C   C26       1.0  0.9287100653205183  0.48506276874109727  0.18006316018892976  1.0000
  C   C27       1.0  0.9650641745326906  0.5076517087284749  0.060786398281080116  1.0000
  C   C28       1.0  0.9288315894032442  0.4853583631172247  0.9448354047992931  1.0000
  C   C29       1.0  0.8576185107501982  0.4405740500243427  0.947109077799193  1.0000
  C   C30       1.0  0.822429630636711  0.4182287219380022  0.06724167619228893  1.0000
  C   C31       1.0  0.04039261881479007  0.5550348799797263  0.056421261195215955  1.0000
  C   C32       1.0  0.0880541265525967  0.5552260873494282  0.1606494015203006  1.0000
  C   C33       1.0  0.15569832823487986  0.6061327958180356  0.1258557918152694  1.0000
  C   C34       1.0  0.16233506921528432  0.6464183097273737  0.9947046310038367  1.0000
  S   S2        1.0  0.08392304346031532  0.6183640042083143  0.9222464538839603  1.0000
  H   H16       1.0  0.8299116739980659  0.4233987181308625  0.5133610365136123  1.0000
  H   H17       1.0  0.9553181876043911  0.5036761821837911  0.270043544196854  1.0000
  H   H18       1.0  0.9561919778536346  0.5019029650430472  0.852346110989226  1.0000
  H   H19       1.0  0.7675365497449451  0.38370718873053034  0.06977540487944633  1.0000
  H   H20       1.0  0.723169626602407  0.35593062858577057  0.7441571714583007  1.0000
  H   H21       1.0  0.0754530200399639  0.5184976873702554  0.25924429096436863  1.0000
  H   H22       1.0  0.19891112389938503  0.6129648050854313  0.19483176164198968  1.0000
  H   H23       1.0  0.20982255378712167  0.6882094312263012  0.947585210383437  1.0000
  Zn  Zn1       1.0  0.7793199996721495  0.43865306220690603  0.5658208652571688  1.0000
  Zn  Zn2       1.0  0.9358140749128563  0.4422366734837519  0.5655206398517663  1.0000
  C   C35       1.0  0.8575978518124798  0.43535170642195536  0.8029090143124594  1.0000
  C   C36       1.0  0.8575379319875287  0.4455397070546044  0.3284326150536742  1.0000
  C   C37       1.0  0.85760788859554  0.6776341512932055  0.5605016155636914  1.0000
  C   C38       1.0  0.857527841537997  0.2032557006905351  0.5708400831121653  1.0000
  O   O1        1.0  0.9169318359904031  0.4486469862066884  0.37671338026246176  1.0000
  O   O2        1.0  0.9169793296712694  0.43496332546685673  0.7544000110263747  1.0000
  O   O3        1.0  0.9169866340828572  0.630609445903375  0.55865432303808  1.0000
  O   O4        1.0  0.9169244781673486  0.2530008738045977  0.5724589709611525  1.0000
  O   O5        1.0  0.7982095430139091  0.6278888606645612  0.558882534243403  1.0000
  O   O6        1.0  0.798202238865045  0.43224430049936274  0.7546281530175944  1.0000
  O   O7        1.0  0.7981547450268778  0.4459279154570905  0.3769399605687062  1.0000
  O   O8        1.0  0.7981473872115418  0.25028179379907334  0.5726856486526213  1.0000
