data_image0
_chemical_formula_structural       NC5OC5NC4H8C6NCH9C6NH7Zn2C4O8
_chemical_formula_sum              "N4 C31 O9 H24 Zn2"
_cell_length_a       19.189071930511275
_cell_length_b       9.273386996610926
_cell_length_c       9.274774538082514
_cell_angle_alpha    84.97283399596293
_cell_angle_beta     90.32765294797488
_cell_angle_gamma    89.38971707573329

_space_group_name_H-M_alt    "P 1"
_space_group_IT_number       1

loop_
  _space_group_symop_operation_xyz
  'x, y, z'

loop_
  _atom_site_type_symbol
  _atom_site_label
  _atom_site_symmetry_multiplicity
  _atom_site_fract_x
  _atom_site_fract_y
  _atom_site_fract_z
  _atom_site_occupancy
  N   N1        1.0  0.6434320293352923  0.5925946371175848  0.4049255632303268  1.0000
  C   C1        1.0  0.588654107059267  0.6440040018434616  0.3845135418781442  1.0000
  C   C2        1.0  0.5205174466059982  0.7079486876525729  0.35912405609230014  1.0000
  C   C3        1.0  0.5099375098884134  0.8166023507567257  0.2462395631465364  1.0000
  C   C4        1.0  0.44375011748665255  0.8787963622486147  0.22171638497898116  1.0000
  C   C5        1.0  0.3874799611881464  0.8322348072558678  0.308571730996571  1.0000
  O   O1        1.0  0.3220935681862348  0.8984850477872723  0.2815248768918829  1.0000
  C   C6        1.0  0.25753811627019957  0.8320296936452568  0.3079450581146781  1.0000
  C   C7        1.0  0.20043864319723104  0.9179302096541605  0.3414316923485254  1.0000
  C   C8        1.0  0.1350281574888095  0.8560450957966428  0.36689971491004303  1.0000
  C   C9        1.0  0.1260586968557822  0.7074677817185332  0.35765332392283766  1.0000
  C   C10       1.0  0.05872131759350962  0.6437390365387702  0.3837031055554875  1.0000
  N   N2        1.0  0.004586041894156703  0.5925033399875392  0.4046464596622454  1.0000
  C   C11       1.0  0.1826802895665947  0.6212433570867061  0.3220364055574554  1.0000
  C   C12       1.0  0.2480818380379506  0.6831718632853621  0.29661680418232517  1.0000
  C   C13       1.0  0.398542358186417  0.7245682162694885  0.42325312739245136  1.0000
  C   C14       1.0  0.4647210648397533  0.6623690511679954  0.4478445242115196  1.0000
  H   H1        1.0  0.552796700358162  0.8533190279137393  0.17739872165044068  1.0000
  H   H2        1.0  0.436030723385815  0.9629152536548606  0.1343739596294211  1.0000
  H   H3        1.0  0.2069113698316902  0.03292759021537205  0.34855061460518066  1.0000
  H   H4        1.0  0.09151361346302991  0.9239849745227535  0.3935748100822465  1.0000
  H   H5        1.0  0.17619493960394642  0.5064313561929659  0.3131670251329013  1.0000
  H   H6        1.0  0.2908747404745302  0.6154968663954316  0.2661475563135991  1.0000
  H   H7        1.0  0.35638800370928925  0.6902466043181175  0.49481633389367236  1.0000
  H   H8        1.0  0.47244472854311004  0.5794036368675062  0.5363980285541008  1.0000
  C   C15       1.0  0.8261574704616514  0.16888830201674707  0.40549355908642715  1.0000
  C   C16       1.0  0.838002827262068  0.2534970535506697  0.27498842176842325  1.0000
  C   C17       1.0  0.8432866752274923  0.19012904474365544  0.14448028883985328  1.0000
  C   C18       1.0  0.8368010157262382  0.03985913965188991  0.14114054923402986  1.0000
  C   C19       1.0  0.8261823820756998  0.954291110471376  0.2711914246683915  1.0000
  C   C20       1.0  0.8218673696131198  0.016198482876395685  0.40409096954575774  1.0000
  N   N3        1.0  0.8414876847673434  0.9714783153842443  0.007938492653454471  1.0000
  C   C21       1.0  0.8526749936633022  0.050598190522844325  0.8670897383347808  1.0000
  H   H9        1.0  0.8411044716967423  0.42896627682061533  0.6424314792174539  1.0000
  H   H10       1.0  0.8415519363542723  0.3701574661963407  0.27321500669497  1.0000
  H   H11       1.0  0.8517813528446766  0.2595825454394871  0.046438671561545464  1.0000
  H   H12       1.0  0.8228862646049564  0.8379106965147688  0.2689171631320588  1.0000
  H   H13       1.0  0.8485786893062428  0.8817692902250851  0.7555939507655409  1.0000
  H   H14       1.0  0.8365698315881809  0.8590863788857585  0.010935115564227216  1.0000
  H   H15       1.0  0.8093985987442089  0.1294010103943746  0.8420469566669572  1.0000
  H   H16       1.0  0.903115671503005  0.10813516544972113  0.8672836483914375  1.0000
  H   H17       1.0  0.85417585130765  0.9739051087915167  0.7816462933727548  1.0000
  C   C22       1.0  0.8227430963847576  0.5962336578935092  0.9809707937839985  1.0000
  C   C23       1.0  0.8716913910277855  0.681358125459484  0.04752820380145351  1.0000
  C   C24       1.0  0.9238262580663626  0.7545976185119072  0.9666014440229969  1.0000
  C   C25       1.0  0.9274363981605533  0.7430447642450605  0.8176404066696638  1.0000
  C   C26       1.0  0.8786955910522644  0.661098381666589  0.7493750002562172  1.0000
  C   C27       1.0  0.8252817519699897  0.5888531064379199  0.8286137035082317  1.0000
  N   N4        1.0  0.9735755885771633  0.8395211717737379  0.036163813111595985  1.0000
  H   H18       1.0  0.7200049797963671  0.3142358706036581  0.1074384747009016  1.0000
  H   H19       1.0  0.8704023343872992  0.6882008132279598  0.1635379759525286  1.0000
  H   H20       1.0  0.9676925644945269  0.7987749857429547  0.7539860322550962  1.0000
  H   H21       1.0  0.8818234199654503  0.6570845341069995  0.6332061920879054  1.0000
  H   H22       1.0  0.753921541187349  0.40331024245520974  0.5628949764773878  1.0000
  H   H23       1.0  0.9715061257873169  0.8485688549421053  0.1475203235540623  1.0000
  H   H24       1.0  0.012831652677852913  0.8941171280452187  0.976800778816096  1.0000
  Zn  Zn1       1.0  0.7476533292131406  0.5925643694842868  0.40485335459209576  1.0000
  Zn  Zn2       1.0  0.9003648542697646  0.5925217468853343  0.4047304881352545  1.0000
  C   C28       1.0  0.8248294411103091  0.5845008089152524  0.6684005605450057  1.0000
  C   C29       1.0  0.8231904011852732  0.600587126089067  0.14118341948284052  1.0000
  C   C30       1.0  0.8226574898212812  0.8560889146070375  0.39860481615734145  1.0000
  C   C31       1.0  0.8253623093711566  0.32899728641023634  0.4109792437277601  1.0000
  O   O2        1.0  0.8812937805265747  0.6020257206895543  0.1949056234667479  1.0000
  O   O3        1.0  0.8826305800491403  0.5830287799974663  0.6145846901037947  1.0000
  O   O4        1.0  0.8808759251724905  0.8023395971952636  0.3967227158064326  1.0000
  O   O5        1.0  0.8830483829167738  0.382714914768989  0.412767489574905  1.0000
  O   O6        1.0  0.7649697484531521  0.8023712016168141  0.39681635318677927  1.0000
  O   O7        1.0  0.7667243943199662  0.5830621184222442  0.6146782476612203  1.0000
  O   O8        1.0  0.7653875899014042  0.6020590239483627  0.19499744589746992  1.0000
  O   O9        1.0  0.7671421926650744  0.38274820676674715  0.41285942022916694  1.0000
