data_image0
_chemical_formula_structural       NC9NC3OH6C7OH6C6FH3Zn2C4O8
_chemical_formula_sum              "N2 C29 O10 H15 F1 Zn2"
_cell_length_a       15.78231758774541
_cell_length_b       9.274078303013075
_cell_length_c       9.275646106892307
_cell_angle_alpha    85.12816717497476
_cell_angle_beta     90.10253560025424
_cell_angle_gamma    89.04960325712263

_space_group_name_H-M_alt    "P 1"
_space_group_IT_number       1

loop_
  _space_group_symop_operation_xyz
  'x, y, z'

loop_
  _atom_site_type_symbol
  _atom_site_label
  _atom_site_symmetry_multiplicity
  _atom_site_fract_x
  _atom_site_fract_y
  _atom_site_fract_z
  _atom_site_occupancy
  N   N1        1.0  0.7880293174902111  0.5862626473182517  0.4154945486994026  1.0000
  C   C1        1.0  0.7400495705686  0.494852147751621  0.4419769124270345  1.0000
  C   C2        1.0  0.6804807700610038  0.38138949431148816  0.4748483523032505  1.0000
  C   C3        1.0  0.7010044647170737  0.23886305745021572  0.5160519276414441  1.0000
  C   C4        1.0  0.6246912357814374  0.1697882842640901  0.536103644033112  1.0000
  C   C5        1.0  0.5622732787484449  0.2752736708613226  0.5056541585140435  1.0000
  C   C6        1.0  0.46930015563132205  0.2557699487266058  0.5113857854714668  1.0000
  C   C7        1.0  0.4148325349026125  0.3753528098235286  0.4766840723888622  1.0000
  C   C8        1.0  0.3267226925114488  0.3593601404934694  0.4813918269730817  1.0000
  C   C9        1.0  0.27153754959697196  0.48242242459054974  0.445671285051527  1.0000
  N   N2        1.0  0.22718168496246102  0.5813486390530085  0.4169551470413224  1.0000
  C   C10       1.0  0.2924002596664368  0.22360660369968932  0.5208552013708632  1.0000
  C   C11       1.0  0.34593545557622896  0.10427092522644153  0.5554900118036572  1.0000
  C   C12       1.0  0.43386229024476636  0.11982426533388724  0.5509101732957957  1.0000
  O   O1        1.0  0.5979763805954261  0.4002887194407999  0.46945925107729836  1.0000
  H   H1        1.0  0.7637552508514691  0.19079863184623735  0.529890740678517  1.0000
  H   H2        1.0  0.6166452890608656  0.05621250893267682  0.5689546117512276  1.0000
  H   H3        1.0  0.44079970961955595  0.48099318842281463  0.445969322432493  1.0000
  H   H4        1.0  0.22436582001725872  0.21006166898710127  0.524840065973246  1.0000
  H   H5        1.0  0.31923360159173514  0.9993527540654971  0.5859952505430018  1.0000
  H   H6        1.0  0.47351982996885134  0.025301906300331026  0.5783525506111524  1.0000
  C   C13       1.0  0.010134845798845271  0.16032368848919476  0.4149390433529363  1.0000
  C   C14       1.0  0.9937118260000644  0.2453591690727175  0.28459869376661606  1.0000
  C   C15       1.0  0.9699688324803188  0.18185754733243664  0.15916385202947536  1.0000
  C   C16       1.0  0.962423667983727  0.031246681852634024  0.1639886372545014  1.0000
  C   C17       1.0  0.979799454642074  0.9451705453142294  0.291646086788643  1.0000
  C   C18       1.0  0.005084326424318777  0.007276276248518555  0.41752314679781843  1.0000
  C   C19       1.0  0.95247174475401  0.2744014323859476  0.024783636675017373  1.0000
  O   O2        1.0  0.9306596741777122  0.220565403332005  0.9104345952577938  1.0000
  H   H7        1.0  0.007633706315168356  0.23319536142387906  0.7702798632318648  1.0000
  H   H8        1.0  0.9975011445265718  0.36221552970729687  0.2814984044460438  1.0000
  H   H9        1.0  0.9438594978627002  0.9796175006616991  0.06864634322033036  1.0000
  H   H10       1.0  0.9753822549576674  0.8287910471373302  0.2908593403190434  1.0000
  H   H11       1.0  0.007109669604518302  0.7058214783711262  0.6562186129847023  1.0000
  H   H12       1.0  0.9583209933941869  0.39066671495604877  0.0232865232592383  1.0000
  C   C20       1.0  0.007484042484221746  0.5883147406953559  0.9924040753999228  1.0000
  C   C21       1.0  0.0849822143368344  0.602518678860356  0.06476896481785088  1.0000
  C   C22       1.0  0.16151078584416448  0.6031935974378185  0.9895823773766428  1.0000
  C   C23       1.0  0.16188606158004415  0.5895316907435076  0.8411654274144118  1.0000
  C   C24       1.0  0.0857014071778139  0.5777173918419305  0.7668803314710964  1.0000
  C   C25       1.0  0.007735081922794145  0.5792852667925887  0.8400580719211279  1.0000
  F   F1        1.0  0.23564034541802903  0.6153829490969973  0.06130412147595266  1.0000
  H   H13       1.0  0.8116922133042117  0.47335329646295876  0.10454601388059627  1.0000
  H   H14       1.0  0.22130448378089762  0.5894700699029576  0.7830495384010656  1.0000
  H   H15       1.0  0.8751458486547276  0.5078267138057411  0.5645473278039472  1.0000
  Zn  Zn1       1.0  0.914759226321416  0.584840629930641  0.4159243617973143  1.0000
  Zn  Zn2       1.0  0.10045182131944759  0.5827587608373337  0.4165370962750417  1.0000
  C   C26       1.0  0.007720023414099279  0.5752470490602122  0.6798157842493511  1.0000
  C   C27       1.0  0.007493041175683502  0.5923541370301455  0.152645827722951  1.0000
  C   C28       1.0  0.006032904711722011  0.8472455400562028  0.4112833223400168  1.0000
  C   C29       1.0  0.00918010686876202  0.3203539133247888  0.42117836108403295  1.0000
  O   O3        1.0  0.07796547079209004  0.5929134454843585  0.20665693397494667  1.0000
  O   O4        1.0  0.07818398313136882  0.573106566651987  0.6262693105024217  1.0000
  O   O5        1.0  0.07682066392633713  0.7927487826858577  0.40942744903916206  1.0000
  O   O6        1.0  0.07932872653924816  0.3732712416297374  0.42349868704513405  1.0000
  O   O7        1.0  0.9358822577338353  0.7943281498503274  0.4089627708105388  1.0000
  O   O8        1.0  0.9372455665803846  0.574687667237913  0.625804560605367  1.0000
  O   O9        1.0  0.9370270540831641  0.5944945143005451  0.20619044869216752  1.0000
  O   O10       1.0  0.9383903099204154  0.37485229897876504  0.42303230993874497  1.0000
