data_image0
_chemical_formula_structural       NC5OC5NC4H8C6NH7C9H10Zn2C4O8
_chemical_formula_sum              "N3 C33 O9 H25 Zn2"
_cell_length_a       19.189071930511275
_cell_length_b       9.274771166103582
_cell_length_c       10.297187173949778
_cell_angle_alpha    85.46307945309522
_cell_angle_beta     89.95213100257865
_cell_angle_gamma    90.58817672672019

_space_group_name_H-M_alt    "P 1"
_space_group_IT_number       1

loop_
  _space_group_symop_operation_xyz
  'x, y, z'

loop_
  _atom_site_type_symbol
  _atom_site_label
  _atom_site_symmetry_multiplicity
  _atom_site_fract_x
  _atom_site_fract_y
  _atom_site_fract_z
  _atom_site_occupancy
  N   N1        1.0  0.6645131752038519  0.5782916226705501  0.5641101210192057  1.0000
  C   C1        1.0  0.6103186811088804  0.6295136641463455  0.5457298459155575  1.0000
  C   C2        1.0  0.5429077091593603  0.6932253481102422  0.5228675471501354  1.0000
  C   C3        1.0  0.5337787063698121  0.8008673377761066  0.42124934845795187  1.0000
  C   C4        1.0  0.46829659984463806  0.8628362380180469  0.3991670538829622  1.0000
  C   C5        1.0  0.4112844696168525  0.8170479631276533  0.4773475567428651  1.0000
  O   O1        1.0  0.3466522477464695  0.8830502502614208  0.45299317933720973  1.0000
  C   C6        1.0  0.2813425088678417  0.8168373449844983  0.47678356684388007  1.0000
  C   C7        1.0  0.22500675118832175  0.9030216405900385  0.5069078408237038  1.0000
  C   C8        1.0  0.1588911506517991  0.8413699373004151  0.5298404717510566  1.0000
  C   C9        1.0  0.1484486923486791  0.6927315235797482  0.5215439249502181  1.0000
  C   C10       1.0  0.08038574482943213  0.6292415801377724  0.5450004734715128  1.0000
  N   N2        1.0  0.025667136731191708  0.5781978739593251  0.5638589347884987  1.0000
  C   C11       1.0  0.2043099498454075  0.6062045558819644  0.48950238454560124  1.0000
  C   C12       1.0  0.2704169005189725  0.6679000730247595  0.46661332674736644  1.0000
  C   C13       1.0  0.4209002974206265  0.7104087739733684  0.5805828550885515  1.0000
  C   C14       1.0  0.48637345300756335  0.648435323135417  0.6027265494567333  1.0000
  H   H1        1.0  0.577224082675378  0.8369711453423212  0.3592841493536954  1.0000
  H   H2        1.0  0.4617003461885833  0.946172357676195  0.3205417204097727  1.0000
  H   H3        1.0  0.23261968128299265  0.01806597887896233  0.5132953611918165  1.0000
  H   H4        1.0  0.11598004574622618  0.909535939212819  0.553837230311337  1.0000
  H   H5        1.0  0.196691738233077  0.49133011687323624  0.4815393655547069  1.0000
  H   H6        1.0  0.3126208931871958  0.5999654178299523  0.439201667259393  1.0000
  H   H7        1.0  0.3781754635454567  0.6767237362751974  0.644997856458565  1.0000
  H   H8        1.0  0.4929818530331367  0.5662632137424444  0.6824416937928501  1.0000
  C   C15       1.0  0.8429538439568893  0.1546488677164146  0.5646940341748156  1.0000
  C   C16       1.0  0.8269458488589536  0.23794589223930476  0.44854296763921037  1.0000
  C   C17       1.0  0.8174445055924274  0.17288299061690715  0.33165037655929885  1.0000
  C   C18       1.0  0.823987895505685  0.0231454661829662  0.3300621146363978  1.0000
  C   C19       1.0  0.8387076316039047  0.9385291296791346  0.444618348215311  1.0000
  C   C20       1.0  0.8472331097021554  0.001829604124143453  0.5632862808533194  1.0000
  N   N3        1.0  0.8018649749741142  0.2592792274117319  0.2142223221048827  1.0000
  H   H9        1.0  0.9213129353066035  0.23432771619144566  0.8489241743960201  1.0000
  H   H10       1.0  0.8234322302113761  0.3545394437671221  0.44804643807750555  1.0000
  H   H11       1.0  0.8170073991246363  0.9716477587788879  0.24012482970973292  1.0000
  H   H12       1.0  0.8417796669083545  0.8223638086803257  0.44089600502896437  1.0000
  H   H13       1.0  0.8971861407787901  0.7047767721073316  0.7566657491961284  1.0000
  H   H14       1.0  0.7970635900751504  0.3713543686624823  0.214183471229654  1.0000
  H   H15       1.0  0.7949495689600741  0.2117990028916279  0.1264212247499954  1.0000
  C   C21       1.0  0.845185336989238  0.5781870513873254  0.1825370130596553  1.0000
  C   C22       1.0  0.7747630967219561  0.6178259597807939  0.17903838652964743  1.0000
  C   C23       1.0  0.738683706175218  0.6381338989679002  0.0606295336692635  1.0000
  C   C24       1.0  0.7744901027175384  0.617979066330023  0.9438155975646102  1.0000
  C   C25       1.0  0.8450016131399929  0.5782914110074193  0.9454432775697685  1.0000
  C   C26       1.0  0.8798887568700967  0.5586531573927049  0.06519285308299816  1.0000
  C   C27       1.0  0.6625169760547471  0.6810059163281945  0.06627768953668856  1.0000
  C   C28       1.0  0.6134359846911043  0.6229993078131764  0.9661361915722968  1.0000
  C   C29       1.0  0.6349622996591324  0.7821327508236333  0.9547578328115134  1.0000
  H   H16       1.0  0.8723232267741459  0.5629259988489566  0.5114225334370666  1.0000
  H   H17       1.0  0.7475763036695606  0.6331291146077211  0.2691100823083161  1.0000
  H   H18       1.0  0.7480576905877423  0.6328538765701446  0.85120222847004  1.0000
  H   H19       1.0  0.9342208540578545  0.5280701893722781  0.06716477098894491  1.0000
  H   H20       1.0  0.9781752652451978  0.5033141479188918  0.7413023907092828  1.0000
  H   H21       1.0  0.6380358560943259  0.6947869273005092  0.16234915859217414  1.0000
  H   H22       1.0  0.6367074239306214  0.5578860263331062  0.8917029841801876  1.0000
  H   H23       1.0  0.5591753982864589  0.6034953408137269  0.00132487665940717  1.0000
  H   H24       1.0  0.671310139042644  0.813684153979338  0.8734138231042824  1.0000
  H   H25       1.0  0.5932822771543774  0.855635709353365  0.9832939508096749  1.0000
  Zn  Zn1       1.0  0.7687343946825478  0.5782607216921156  0.5640451361913708  1.0000
  Zn  Zn2       1.0  0.9214458726910654  0.5782170201987749  0.5639345598704566  1.0000
  C   C30       1.0  0.8450057528262482  0.5725251292428307  0.8012472051888307  1.0000
  C   C31       1.0  0.8451761913146634  0.583954432243607  0.32673261413567456  1.0000
  C   C32       1.0  0.8464218885109738  0.8416936738253209  0.5583760418388695  1.0000
  C   C33       1.0  0.8437599947494883  0.3147841546188037  0.5696038496571669  1.0000
  O   O2        1.0  0.9031263001969813  0.5858671403764482  0.37508402241971983  1.0000
  O   O3        1.0  0.9029601168426814  0.5705781644345578  0.752811499915476  1.0000
  O   O4        1.0  0.9041028827553015  0.7879351686940517  0.5566913152299224  1.0000
  O   O5        1.0  0.9019834822498565  0.3685101464374272  0.571204109729688  1.0000
  O   O6        1.0  0.7881967330108334  0.7879675954699461  0.5567755863630385  1.0000
  O   O7        1.0  0.7870539758657398  0.5706123242692478  0.7528956989079598  1.0000
  O   O8        1.0  0.7872201593885964  0.5859012497306273  0.37516665975021724  1.0000
  O   O9        1.0  0.7860773413630531  0.3685442454876167  0.5712868444666701  1.0000
