data_image0
_chemical_formula_structural       NC9NC3OH6C9H7C6SCH6Zn2C4O8
_chemical_formula_sum              "N2 C32 O9 H19 S1 Zn2"
_cell_length_a       15.78231758774541
_cell_length_b       9.275152443626249
_cell_length_c       10.302812801239595
_cell_angle_alpha    85.3632325581603
_cell_angle_beta     90.08384720459999
_cell_angle_gamma    90.20707041648353

_space_group_name_H-M_alt    "P 1"
_space_group_IT_number       1

loop_
  _space_group_symop_operation_xyz
  'x, y, z'

loop_
  _atom_site_type_symbol
  _atom_site_label
  _atom_site_symmetry_multiplicity
  _atom_site_fract_x
  _atom_site_fract_y
  _atom_site_fract_z
  _atom_site_occupancy
  N   N1        1.0  0.8071206131635281  0.5697871316587784  0.5655074467548116  1.0000
  C   C1        1.0  0.7580517163018443  0.47863532187252145  0.5898617945184292  1.0000
  C   C2        1.0  0.6971310158614433  0.3654937694777587  0.6200918102053614  1.0000
  C   C3        1.0  0.7159565324914726  0.22336974720402256  0.6579861969107563  1.0000
  C   C4        1.0  0.6388202754625754  0.15449088243317075  0.676425827583362  1.0000
  C   C5        1.0  0.577659150932553  0.2596789248646975  0.6484209115938742  1.0000
  C   C6        1.0  0.4844536284816058  0.2402312634711896  0.6536903296372913  1.0000
  C   C7        1.0  0.4314108392631723  0.3594750940022291  0.6217782677353811  1.0000
  C   C8        1.0  0.34311043263233615  0.34352847790591623  0.626106222625008  1.0000
  C   C9        1.0  0.2893915801550959  0.4662417695438237  0.5932574189165967  1.0000
  N   N2        1.0  0.2462144242788383  0.5648874238530517  0.5668499316745093  1.0000
  C   C10       1.0  0.3071704827065815  0.20816055356518914  0.662395767289738  1.0000
  C   C11       1.0  0.35928379147067185  0.08916325630194842  0.6942462076131393  1.0000
  C   C12       1.0  0.4473959556922994  0.10467179327487063  0.6900358770955368  1.0000
  O   O1        1.0  0.6148517947545731  0.3843404282145655  0.6151340177648339  1.0000
  H   H1        1.0  0.7781346488158623  0.17544042826526574  0.6707147100100126  1.0000
  H   H2        1.0  0.6294210900135403  0.04123596095685799  0.7066380900256384  1.0000
  H   H3        1.0  0.4586367306327898  0.4648153418430343  0.5935338472265732  1.0000
  H   H4        1.0  0.2389746457481838  0.19465459842076993  0.666059198266139  1.0000
  H   H5        1.0  0.3313318259343222  0.984543169064479  0.7222979580661548  1.0000
  H   H6        1.0  0.4859272579467463  0.010417553653777594  0.7152719161277995  1.0000
  C   C13       1.0  0.024172162094023616  0.14373284021874433  0.5674965164836194  1.0000
  C   C14       1.0  0.9936076545545276  0.22681329770172232  0.45710603620544354  1.0000
  C   C15       1.0  0.970918877053456  0.16162512701515852  0.3446745992352682  1.0000
  C   C16       1.0  0.9784383507615417  0.012199280802008822  0.34040781753092264  1.0000
  C   C17       1.0  0.007346039741755739  0.9274491643110815  0.4498610794911289  1.0000
  C   C18       1.0  0.029170900664692728  0.990930579798013  0.5648720983471023  1.0000
  C   C19       1.0  0.9554834206752917  0.9453059168775492  0.22397964675164955  1.0000
  C   C20       1.0  0.9362640307598609  0.8892650241997607  0.12648931376284422  1.0000
  C   C21       1.0  0.9129451000942642  0.8212573091629914  0.008201893867149531  1.0000
  H   H7        1.0  0.14591719876077092  0.2240257813429791  0.8271545656740453  1.0000
  H   H8        1.0  0.9891445115971141  0.3433805862370112  0.456684006955127  1.0000
  H   H9        1.0  0.9482659612157645  0.22811766665324806  0.2605207932842606  1.0000
  H   H10       1.0  0.1084221142728754  0.6947468460433083  0.7424572007958489  1.0000
  H   H11       1.0  0.9284340505591612  0.7043626446320722  0.0203781734584465  1.0000
  H   H12       1.0  0.8439850167003766  0.8346093743514784  0.9902174166003288  1.0000
  H   H13       1.0  0.9487258340508333  0.8732065783035757  0.9242741479420178  1.0000
  C   C22       1.0  0.026671553414502322  0.5673317008717045  0.1849358635175682  1.0000
  C   C23       1.0  0.9989467427361121  0.7115037700259303  0.17320560586452793  1.0000
  C   C24       1.0  0.9849320650488225  0.7830289161886408  0.05039340601736387  1.0000
  C   C25       1.0  0.9989466654597441  0.7115036194532123  0.938054436410825  1.0000
  C   C26       1.0  0.02667149840059624  0.5673316917637581  0.9474327670091984  1.0000
  C   C27       1.0  0.04037224541623782  0.4959378837246708  0.07141076061180196  1.0000
  S   S1        1.0  0.9496841594022566  0.9673349175123124  0.03690132301419724  1.0000
  C   C28       1.0  0.8379390194834122  0.9181792203666951  0.04022884732600862  1.0000
  H   H14       1.0  0.9879332934222451  0.7687693392615571  0.25911295343595464  1.0000
  H   H15       1.0  0.9879331225658984  0.7687691333593979  0.8437626405789307  1.0000
  H   H16       1.0  0.0617422003280281  0.3847221849924549  0.07955239202095332  1.0000
  H   H17       1.0  0.8225363262880803  0.8541747297580883  0.9567353790614468  1.0000
  H   H18       1.0  0.8225366977677956  0.8541761835410031  0.13297006768841912  1.0000
  H   H19       1.0  0.7993132354000061  0.018183152622753166  0.03286402443885849  1.0000
  Zn  Zn1       1.0  0.9338335757226098  0.5683693286696587  0.5659023619391055  1.0000
  Zn  Zn2       1.0  0.11950136376007697  0.5662934535114486  0.5664656659267342  1.0000
  C   C29       1.0  0.026635713732818356  0.5615850604533061  0.8033223343905066  1.0000
  C   C30       1.0  0.02670126397544513  0.5730795191511722  0.3290458214146421  1.0000
  C   C31       1.0  0.028221666433938093  0.8307921939073905  0.5601946451917718  1.0000
  C   C32       1.0  0.02511523769304035  0.30387065330395213  0.5721735850065939  1.0000
  O   O2        1.0  0.09717115592363162  0.5742144624631448  0.37762423016786517  1.0000
  O   O3        1.0  0.0970833704240543  0.5588734877048636  0.755171089972989  1.0000
  O   O4        1.0  0.0983630974532921  0.7762616631775874  0.5588437532482076  1.0000
  O   O5        1.0  0.09589136559944728  0.3568262980178656  0.5739514693245509  1.0000
  O   O6        1.0  0.9574435105239453  0.777836484873206  0.5584165583422271  1.0000
  O   O7        1.0  0.956163793716698  0.5604500425035833  0.7547438204747299  1.0000
  O   O8        1.0  0.9562515789761336  0.5757909669933376  0.37719539991797246  1.0000
  O   O9        1.0  0.9549717885876012  0.358402792230579  0.5735227364436923  1.0000
