data_image0
_chemical_formula_structural       NC9NC3OH6C8H6C12H10Zn2C4O8
_chemical_formula_sum              "N2 C36 O9 H22 Zn2"
_cell_length_a       15.78231758774541
_cell_length_b       9.27514070457351
_cell_length_c       10.299141136925906
_cell_angle_alpha    85.68100498211918
_cell_angle_beta     90.10591436666134
_cell_angle_gamma    90.22379856908987

_space_group_name_H-M_alt    "P 1"
_space_group_IT_number       1

loop_
  _space_group_symop_operation_xyz
  'x, y, z'

loop_
  _atom_site_type_symbol
  _atom_site_label
  _atom_site_symmetry_multiplicity
  _atom_site_fract_x
  _atom_site_fract_y
  _atom_site_fract_z
  _atom_site_occupancy
  N   N1        1.0  0.8070386679607475  0.5695387461876212  0.5732434084279983  1.0000
  C   C1        1.0  0.7579597524593632  0.478420548258282  0.5971262080055009  1.0000
  C   C2        1.0  0.6970266165396531  0.36532071623402507  0.6267709179061256  1.0000
  C   C3        1.0  0.7158364923016453  0.22324912731326352  0.6639300361227809  1.0000
  C   C4        1.0  0.6386926737802224  0.15439564953458199  0.6820133551619494  1.0000
  C   C5        1.0  0.5775431356285057  0.25954487184899167  0.6545526376523385  1.0000
  C   C6        1.0  0.48433549403223136  0.24010435783581086  0.659721476498581  1.0000
  C   C7        1.0  0.43130579806470354  0.3593042346091928  0.6284262692281717  1.0000
  C   C8        1.0  0.3430036555801567  0.3433634768628897  0.6326717543017413  1.0000
  C   C9        1.0  0.28929827524198537  0.4660315385696226  0.6004577498044764  1.0000
  N   N2        1.0  0.2461319489047062  0.5646408342686802  0.5745605587398661  1.0000
  C   C10       1.0  0.307048857571562  0.20804542938753756  0.6682610571875286  1.0000
  C   C11       1.0  0.35914910124667376  0.08909199359074706  0.6994959198606192  1.0000
  C   C12       1.0  0.44726295331655724  0.10459483356587862  0.6953657930988235  1.0000
  O   O1        1.0  0.6147494863891891  0.3841604000327592  0.6219106528182976  1.0000
  H   H1        1.0  0.7780093212200064  0.17533750733156617  0.676410571035421  1.0000
  H   H2        1.0  0.6292810283465112  0.041182505874314275  0.7116397071179548  1.0000
  H   H3        1.0  0.4585432426922004  0.46460567094152033  0.6007267591966989  1.0000
  H   H4        1.0  0.2388515499033055  0.19454443665194954  0.6718546397108186  1.0000
  H   H5        1.0  0.33118566154267515  0.984510452388279  0.7270064852876842  1.0000
  H   H6        1.0  0.48578390916807934  0.010375332630092604  0.7201142544081633  1.0000
  C   C13       1.0  0.02401534824292772  0.14367797322264614  0.5729859971629347  1.0000
  C   C14       1.0  0.036084162200923565  0.2270175903551419  0.45455034102437697  1.0000
  C   C15       1.0  0.055542916497141465  0.16151702004081847  0.340791689511891  1.0000
  C   C16       1.0  0.0633984891038093  0.011498804228632135  0.3432842610539966  1.0000
  C   C17       1.0  0.05024402835039729  0.9265910394313178  0.4595881295755147  1.0000
  C   C18       1.0  0.02916326710530149  0.9904904401846389  0.5748292169804847  1.0000
  C   C19       1.0  0.08401227080710849  0.9442354453078307  0.22589885012741465  1.0000
  C   C20       1.0  0.10127186862799537  0.8879038924186239  0.127622091426409  1.0000
  H   H7        1.0  0.03795306848325233  0.2199406521903762  0.8921472021255135  1.0000
  H   H8        1.0  0.032439944542370654  0.34388420016670196  0.45056139361020053  1.0000
  H   H9        1.0  0.06529164610320887  0.2281737276515661  0.25103682806563565  1.0000
  H   H10       1.0  0.054515048263670714  0.8099362103344487  0.45944050470764713  1.0000
  H   H11       1.0  0.03529559131477323  0.6918370487370531  0.789857351908681  1.0000
  H   H12       1.0  0.11642209105522851  0.8384549253577976  0.04135573545237636  1.0000
  C   C21       1.0  0.0264937626893944  0.567208333668737  0.19251457060007462  1.0000
  C   C22       1.0  0.11508757692227672  0.5817496157620712  0.19099858784239765  1.0000
  C   C23       1.0  0.16010655781821792  0.5889950896404952  0.07309622898498791  1.0000
  C   C24       1.0  0.11533420814487733  0.5815030271524109  0.9557330967977795  1.0000
  C   C25       1.0  0.02668489894991909  0.5669600727533421  0.9553006410700783  1.0000
  C   C26       1.0  0.9828105138737314  0.5598998965005844  0.07413909404774577  1.0000
  C   C27       1.0  0.253829910386252  0.6043801193401683  0.07253723933402156  1.0000
  C   C28       1.0  0.3037738759729227  0.5249727131104029  0.9902934930496889  1.0000
  C   C29       1.0  0.3919853952800485  0.5396333131108659  0.9900056458247223  1.0000
  C   C30       1.0  0.43126970342963  0.6335032033422703  0.07148512101189053  1.0000
  C   C31       1.0  0.38242198446635456  0.7129079462875463  0.1534874954876282  1.0000
  C   C32       1.0  0.294190460737797  0.6986090931189456  0.15424587936608503  1.0000
  H   H13       1.0  0.9924107895032915  0.5616882549446813  0.5205684903161029  1.0000
  H   H14       1.0  0.14939665612534014  0.585483205043982  0.2818627761982053  1.0000
  H   H15       1.0  0.14960063405336255  0.5890167489464682  0.8644270922961113  1.0000
  H   H16       1.0  0.9144758802276597  0.5486878818536783  0.07459249995563734  1.0000
  H   H17       1.0  0.8593144655029918  0.5404262944722148  0.7471309322246888  1.0000
  H   H18       1.0  0.27471668683181827  0.4502421138552761  0.9275329781339623  1.0000
  H   H19       1.0  0.42992578334173737  0.4778538786441473  0.9267584179348431  1.0000
  H   H20       1.0  0.4995589555319988  0.644711296927496  0.07108036226558623  1.0000
  H   H21       1.0  0.41292395948570637  0.7859204539868898  0.21632888196243608  1.0000
  H   H22       1.0  0.25748505772697783  0.7625455902425092  0.21739737189143174  1.0000
  Zn  Zn1       1.0  0.9337514787232688  0.5681214607659408  0.573630995113118  1.0000
  Zn  Zn2       1.0  0.11941904076971505  0.5660463482580662  0.5741835634305088  1.0000
  C   C33       1.0  0.026611938977239003  0.5612629896732109  0.8111052075478721  1.0000
  C   C34       1.0  0.026560619091352978  0.572906615913374  0.3367094884641346  1.0000
  C   C35       1.0  0.028184560048170923  0.8304265900462728  0.5693052708357377  1.0000
  C   C36       1.0  0.024987924151333545  0.3037412839124621  0.578509490460138  1.0000
  O   O2        1.0  0.09704289065234548  0.5740252267630286  0.38531230324119536  1.0000
  O   O3        1.0  0.09704704424836041  0.5585683288375558  0.7629214031009146  1.0000
  O   O4        1.0  0.09831600615721636  0.7759213503534086  0.567666243867576  1.0000
  O   O5        1.0  0.09577386542603289  0.35667221630135937  0.5805673649276081  1.0000
  O   O6        1.0  0.957396590707732  0.7774955934323535  0.5672471934206262  1.0000
  O   O7        1.0  0.9561276393087449  0.5601443042540577  0.7625022871747034  1.0000
  O   O8        1.0  0.9561234850724083  0.5756011524420326  0.38489162570640884  1.0000
  O   O9        1.0  0.9548544598043334  0.3582481316358861  0.5801467847443559  1.0000
