data_image0
_chemical_formula_structural       NC9NC3SH6C8NH7C8H6Zn2C4O8
_chemical_formula_sum              "N3 C32 S1 H19 Zn2 O8"
_cell_length_a       16.77567553997237
_cell_length_b       9.274263428431858
_cell_length_c       9.275144076552243
_cell_angle_alpha    85.91390011552684
_cell_angle_beta     90.85075607413872
_cell_angle_gamma    91.51050711931723

_space_group_name_H-M_alt    "P 1"
_space_group_IT_number       1

loop_
  _space_group_symop_operation_xyz
  'x, y, z'

loop_
  _atom_site_type_symbol
  _atom_site_label
  _atom_site_symmetry_multiplicity
  _atom_site_fract_x
  _atom_site_fract_y
  _atom_site_fract_z
  _atom_site_occupancy
  N   N1        1.0  0.7531359240937533  0.588240139303476  0.4167758989075299  1.0000
  C   C1        1.0  0.6989217558865342  0.6433684642068214  0.46292277171036994  1.0000
  C   C2        1.0  0.6316411362659267  0.7117790671137899  0.5201875098543594  1.0000
  C   C3        1.0  0.634834625791865  0.8103925009723802  0.6256458371409541  1.0000
  C   C4        1.0  0.5596430412540517  0.8589368482179487  0.6605987256985864  1.0000
  C   C5        1.0  0.49692852382385216  0.7983364515564602  0.58224882754856  1.0000
  C   C6        1.0  0.41066489428030734  0.8273776903255576  0.5942786155471594  1.0000
  C   C7        1.0  0.35302933078397103  0.7385007536085746  0.5296264611038255  1.0000
  C   C8        1.0  0.271596791167223  0.7653001987918844  0.5404845644013739  1.0000
  C   C9        1.0  0.2132690917408002  0.6734476651043217  0.4742851257825725  1.0000
  N   N2        1.0  0.16639076700539907  0.599611392896072  0.4210705583159928  1.0000
  C   C10       1.0  0.24697126388957324  0.8813236051384241  0.6158158056131735  1.0000
  C   C11       1.0  0.3035139258047023  0.9703732820482867  0.6799555032538956  1.0000
  C   C12       1.0  0.38479269022982227  0.9439797096654323  0.6694241900803408  1.0000
  S   S1        1.0  0.5363314862794831  0.6841242860462031  0.4700762050890024  1.0000
  H   H1        1.0  0.6896773427422465  0.8461507612771197  0.6764300389496539  1.0000
  H   H2        1.0  0.5521951340253195  0.9349514565879717  0.7421258855857165  1.0000
  H   H3        1.0  0.3710255045879028  0.6477703405227615  0.47145531519838474  1.0000
  H   H4        1.0  0.18415653724966458  0.9030045898542034  0.6247823880642376  1.0000
  H   H5        1.0  0.2843314599244158  0.06042182822294916  0.7377745998454532  1.0000
  H   H6        1.0  0.4268852289950896  0.016144397734632058  0.7190693893412983  1.0000
  C   C13       1.0  0.9572451654238624  0.17027517450398832  0.41920339207684276  1.0000
  C   C14       1.0  0.9463497603153356  0.2524175495272343  0.2873572604327384  1.0000
  C   C15       1.0  0.94328079592746  0.18651253465987372  0.15678493905874458  1.0000
  C   C16       1.0  0.9516795313351231  0.03694762348247904  0.15483580790364782  1.0000
  C   C17       1.0  0.9604309600992187  0.9532354967202752  0.28577607813424544  1.0000
  C   C18       1.0  0.9622891513353924  0.017565625977696172  0.4186556729865101  1.0000
  C   C19       1.0  0.9471815036769627  0.9658564566099354  0.014150441347006836  1.0000
  C   C20       1.0  0.8643028109289704  0.9244164542954937  0.9812536502220138  1.0000
  N   N3        1.0  0.7988884686009552  0.8917074656855292  0.9552984467449488  1.0000
  H   H7        1.0  0.027544109238835542  0.2527909687746386  0.7522545170070911  1.0000
  H   H8        1.0  0.9419311403184388  0.36889842143864504  0.2849505526202021  1.0000
  H   H9        1.0  0.9350957746794955  0.25251942780188896  0.05680818419023348  1.0000
  H   H10       1.0  0.9638655614014284  0.8368272165464123  0.28391310878570597  1.0000
  H   H11       1.0  0.006524502848219711  0.722859909653821  0.6448100919554711  1.0000
  H   H12       1.0  0.9840477595997161  0.8677944535880087  0.02011172375174986  1.0000
  H   H13       1.0  0.9703296071134605  0.040681607035257604  0.9246895658471425  1.0000
  C   C21       1.0  0.9578713044672909  0.5909165283048659  0.9956264104664615  1.0000
  C   C22       1.0  0.906439802544735  0.6835719155037885  0.0609989980040464  1.0000
  C   C23       1.0  0.8614493509550281  0.7835513303061931  0.9775245696842384  1.0000
  C   C24       1.0  0.8670780615798369  0.7929237830811153  0.8271460560141017  1.0000
  C   C25       1.0  0.9168534762003029  0.7001170471064764  0.7600005000262098  1.0000
  C   C26       1.0  0.9616630076457898  0.5969242662677027  0.8422326784411556  1.0000
  C   C27       1.0  0.8209530457576105  0.8968371296700509  0.7412871133388781  1.0000
  C   C28       1.0  0.7823373157239406  0.9838370707202564  0.6693869149331799  1.0000
  H   H14       1.0  0.12251574638938356  0.40609580682730023  0.11607563450843572  1.0000
  H   H15       1.0  0.9024366809721466  0.6810369851675803  0.17762923753991977  1.0000
  H   H16       1.0  0.8228104796170495  0.8546102493167602  0.030510315958763412  1.0000
  H   H17       1.0  0.9191752768147538  0.7061746950218655  0.6429357717867412  1.0000
  H   H18       1.0  0.07076224570999345  0.46785654005440014  0.5736458821897077  1.0000
  H   H19       1.0  0.7484407177198996  0.06020445277601724  0.6062719909303789  1.0000
  Zn  Zn1       1.0  0.8723923622276328  0.5915178448239098  0.4180235804182072  1.0000
  Zn  Zn2       1.0  0.04713430686328879  0.5963220024468017  0.4198347222327443  1.0000
  C   C29       1.0  0.9609102997531214  0.5900413177095196  0.6822096261575399  1.0000
  C   C30       1.0  0.9586182889843821  0.5978004033174564  0.15564883657656162  1.0000
  C   C31       1.0  0.9613058950013418  0.8573687835493168  0.4130149257813074  1.0000
  C   C32       1.0  0.9582226241347412  0.3304712030925694  0.4248436143071874  1.0000
  O   O1        1.0  0.02518260365803716  0.6019275535432931  0.2100411475505528  1.0000
  O   O2        1.0  0.026971069467122136  0.5895593206712684  0.6291915156643462  1.0000
  O   O3        1.0  0.027289630406202026  0.8054296162134331  0.41181488027811564  1.0000
  O   O4        1.0  0.02486398266873891  0.3860572659150405  0.4274176742303939  1.0000
  O   O5        1.0  0.894662626791308  0.8017825797177649  0.4104406277949204  1.0000
  O   O6        1.0  0.8943440758227745  0.5859140169227843  0.627817185201121  1.0000
  O   O7        1.0  0.8925556020054488  0.5982821872244753  0.20866508403269385  1.0000
  O   O8        1.0  0.8922369814354945  0.3824118900444038  0.42604171879328784  1.0000
