data_image0
_chemical_formula_structural       NC9NC3OH6C6NH5C6ClH3Zn2C4O8
_chemical_formula_sum              "N3 C28 O9 H14 Cl1 Zn2"
_cell_length_a       15.78231758774541
_cell_length_b       9.274771166103584
_cell_length_c       10.30297407846105
_cell_angle_alpha    85.4557754151483
_cell_angle_beta     90.08385130592438
_cell_angle_gamma    90.23039320205511

_space_group_name_H-M_alt    "P 1"
_space_group_IT_number       1

loop_
  _space_group_symop_operation_xyz
  'x, y, z'

loop_
  _atom_site_type_symbol
  _atom_site_label
  _atom_site_symmetry_multiplicity
  _atom_site_fract_x
  _atom_site_fract_y
  _atom_site_fract_z
  _atom_site_occupancy
  N   N1        1.0  0.8074977899736921  0.5696505235292575  0.5678203558127428  1.0000
  C   C1        1.0  0.7584069890810726  0.4785066479072406  0.5920413238887581  1.0000
  C   C2        1.0  0.6974591004140397  0.3653749437388609  0.6221057829570311  1.0000
  C   C3        1.0  0.7162504642464057  0.22326329242694182  0.6597922051128309  1.0000
  C   C4        1.0  0.6390976554382942  0.15439042310614637  0.6781310468572972  1.0000
  C   C5        1.0  0.5779618078892215  0.25956930960880426  0.6502800477899613  1.0000
  C   C6        1.0  0.4847516121151005  0.2401233410037624  0.6555210075110867  1.0000
  C   C7        1.0  0.4317374775151325  0.35935679214693006  0.6237834323147429  1.0000
  C   C8        1.0  0.34343323887166793  0.34341156409635354  0.6280880519503249  1.0000
  C   C9        1.0  0.2897438747334972  0.4661141743529697  0.5954188118577175  1.0000
  N   N2        1.0  0.24659042367727851  0.5647512422097649  0.5691556706160252  1.0000
  C   C10       1.0  0.3074607596665341  0.20805542263743473  0.664179514924669  1.0000
  C   C11       1.0  0.35954547305498036  0.08906848330283879  0.6958558292206913  1.0000
  C   C12       1.0  0.4476613640176436  0.10457567036190671  0.6916681929201747  1.0000
  O   O1        1.0  0.615184408214798  0.3842199619958353  0.617175567045718  1.0000
  H   H1        1.0  0.7784170630198369  0.17533814542188828  0.6724505859009426  1.0000
  H   H2        1.0  0.6296712545174838  0.04114535972573896  0.708177587543303  1.0000
  H   H3        1.0  0.4589886824318015  0.4646878708165582  0.5956931545576973  1.0000
  H   H4        1.0  0.2392616771924771  0.194550643095688  0.6678231821867548  1.0000
  H   H5        1.0  0.3315683670281438  0.98445750255132  0.7237544907151641  1.0000
  H   H6        1.0  0.4861700167211829  0.010329634949484365  0.716766311747135  1.0000
  C   C13       1.0  0.024446951666049255  0.14363332077719781  0.5691877436954653  1.0000
  C   C14       1.0  0.004950350173526631  0.22715961330927215  0.45303037787214123  1.0000
  C   C15       1.0  0.9933643489792683  0.16223950475086824  0.33616047650705805  1.0000
  C   C16       1.0  0.001319367697677488  0.012415135081021541  0.3346018316284678  1.0000
  C   C17       1.0  0.019249230998506384  0.9275868956869495  0.44915958482274365  1.0000
  C   C18       1.0  0.02964929059441612  0.9907573135496582  0.567799562819346  1.0000
  N   N3        1.0  0.9743883027040989  0.24885948711715808  0.21872870858405616  1.0000
  H   H7        1.0  0.11979951507193437  0.22222971242993259  0.8536054239148976  1.0000
  H   H8        1.0  0.9928061158487903  0.9610229038013225  0.24468345303949765  1.0000
  H   H9        1.0  0.09043903500966549  0.6930127214161323  0.7612918696038997  1.0000
  H   H10       1.0  0.9685507453525963  0.3609985219633933  0.2186687891480421  1.0000
  H   H11       1.0  0.9659548134626108  0.20148357352475288  0.13094562613703786  1.0000
  C   C19       1.0  0.02704812239062359  0.5671953182991845  0.18725114626701678  1.0000
  C   C20       1.0  0.011390167895465757  0.41754915350114397  0.19668549579910355  1.0000
  C   C21       1.0  0.003621161361904823  0.3432988019528653  0.08440977166446628  1.0000
  C   C22       1.0  0.011390206289392468  0.41754923453800674  0.9615775968097431  1.0000
  C   C23       1.0  0.027048119772233203  0.5671952438687666  0.9497361654558759  1.0000
  C   C24       1.0  0.03480078686763344  0.6412888951104578  0.06322658247565927  1.0000
  Cl  Cl1       1.0  0.9840606591605758  0.1563551913354544  0.09769905827065095  1.0000
  H   H12       1.0  0.005162645271912011  0.3580313790897669  0.2909629866698902  1.0000
  H   H13       1.0  0.00516270435151989  0.358031357847476  0.8757620208097591  1.0000
  H   H14       1.0  0.04687663333414813  0.7567005094070273  0.05502220380223343  1.0000
  Zn  Zn1       1.0  0.9342104118315614  0.5682328439500437  0.5682131961167973  1.0000
  Zn  Zn2       1.0  0.11987770103091551  0.5661571494828144  0.5687734624034879  1.0000
  C   C25       1.0  0.02701093055636417  0.5614491589495905  0.805619553829177  1.0000
  C   C26       1.0  0.027079220963643222  0.572942631750166  0.3313672352510135  1.0000
  C   C27       1.0  0.02866156648527339  0.8306328650087409  0.5628884667620615  1.0000
  C   C28       1.0  0.025428511037131504  0.3037571934486856  0.5740983941824671  1.0000
  O   O2        1.0  0.09754938792254636  0.5740774747562065  0.37994653967869496  1.0000
  O   O3        1.0  0.09745793336876368  0.5587378237420975  0.7574651066104583  1.0000
  O   O4        1.0  0.09878989292508805  0.7761070812961657  0.5614580311170898  1.0000
  O   O5        1.0  0.09621736507392087  0.3567082282286256  0.5759535176215846  1.0000
  O   O6        1.0  0.9578706844294322  0.7776817659141353  0.5610331407006777  1.0000
  O   O7        1.0  0.956538735511586  0.5603142413123006  0.7570401441316845  1.0000
  O   O8        1.0  0.9566301898130735  0.5756538420623066  0.3795200163993693  1.0000
  O   O9        1.0  0.9552981668976257  0.3582845852181422  0.575527091694715  1.0000
