data_image0
_chemical_formula_structural       NC9NC3OH6C7OH5C7H8Zn2C4O8
_chemical_formula_sum              "N2 C30 O10 H19 Zn2"
_cell_length_a       15.78231758774541
_cell_length_b       9.274078303013075
_cell_length_c       9.274345330872308
_cell_angle_alpha    85.29477198450357
_cell_angle_beta     89.64000707228584
_cell_angle_gamma    89.04960325712263

_space_group_name_H-M_alt    "P 1"
_space_group_IT_number       1

loop_
  _space_group_symop_operation_xyz
  'x, y, z'

loop_
  _atom_site_type_symbol
  _atom_site_label
  _atom_site_symmetry_multiplicity
  _atom_site_fract_x
  _atom_site_fract_y
  _atom_site_fract_z
  _atom_site_occupancy
  N   N1        1.0  0.7955926992158845  0.5814262889786528  0.4156471226813747  1.0000
  C   C1        1.0  0.7474865429936893  0.4900966210687143  0.4421269363895782  1.0000
  C   C2        1.0  0.6877608359589162  0.37673430055091295  0.4749952110343513  1.0000
  C   C3        1.0  0.7080878519803443  0.23433362864364857  0.5161948188295142  1.0000
  C   C4        1.0  0.6316789094040889  0.16532005896156596  0.5362446044167074  1.0000
  C   C5        1.0  0.569406298088993  0.2707125051254884  0.5057980509161126  1.0000
  C   C6        1.0  0.4764058159731662  0.25122627753571714  0.5115291259681148  1.0000
  C   C7        1.0  0.4221038382861789  0.370703219199338  0.4768307543562145  1.0000
  C   C8        1.0  0.3339715241862801  0.35472491926644656  0.4815380556249454  1.0000
  C   C9        1.0  0.2789568875289943  0.4776781741767384  0.4458209532783791  1.0000
  N   N2        1.0  0.23473809475705093  0.5765167388722412  0.4171075803804809  1.0000
  C   C10       1.0  0.2994607192757072  0.21909183584171046  0.5209976300457884  1.0000
  C   C11       1.0  0.3528305914928075  0.09986187259597368  0.5556291054500165  1.0000
  C   C12       1.0  0.4407792872832795  0.1154012337422594  0.5510497079404473  1.0000
  O   O1        1.0  0.6052821705005973  0.395617076620592  0.46960662873159587  1.0000
  H   H1        1.0  0.7707725807682382  0.1863114430072179  0.5300322993102307  1.0000
  H   H2        1.0  0.6234761538768917  0.051844554065673565  0.5690924088746703  1.0000
  H   H3        1.0  0.4482176249181131  0.47624984770330037  0.4461189619609587  1.0000
  H   H4        1.0  0.23140725851676378  0.20555906406181257  0.52498211094065  1.0000
  H   H5        1.0  0.32598312566139387  0.9950368120429208  0.5861314068023418  1.0000
  H   H6        1.0  0.48030583523644566  0.02096263659811704  0.5784894427954843  1.0000
  C   C13       1.0  0.017700879139874948  0.15548563459032036  0.41509167082520265  1.0000
  C   C14       1.0  0.0019000180199233456  0.2401232795992221  0.28476387187172003  1.0000
  C   C15       1.0  0.9787557675268916  0.17623879528032793  0.15934110841002247  1.0000
  C   C16       1.0  0.9711875726946388  0.025642656408275906  0.16416542905053477  1.0000
  C   C17       1.0  0.9879540070657088  0.9399561664754791  0.2918105862915905  1.0000
  C   C18       1.0  0.01263802496349785  0.002446109763496687  0.41767552544358066  1.0000
  C   C19       1.0  0.9619001221283894  0.2683725139474291  0.024973832692053447  1.0000
  O   O2        1.0  0.940633878295378  0.21418745930974437  0.9106358020849027  1.0000
  H   H7        1.0  0.013503577449086134  0.22944190810887188  0.7703982744988151  1.0000
  H   H8        1.0  0.9530785036676407  0.9737224635969705  0.06883231564331574  1.0000
  H   H9        1.0  0.9835405627889375  0.8235742669260593  0.29102391557877727  1.0000
  H   H10       1.0  0.013523993756896278  0.7017198778923429  0.6563480073499597  1.0000
  H   H11       1.0  0.967756516998477  0.3846332269043757  0.02347686343517008  1.0000
  C   C20       1.0  0.017066978482449514  0.5821869906869762  0.992597389284804  1.0000
  C   C21       1.0  0.966005733244379  0.6843301761074719  0.05799905929582483  1.0000
  C   C22       1.0  0.9099478202013587  0.7749326029726957  0.9760553064240753  1.0000
  C   C23       1.0  0.9029844621186572  0.7644023979733793  0.8270553656764368  1.0000
  C   C24       1.0  0.9553353702026698  0.6662992234148376  0.7596661488589  1.0000
  C   C25       1.0  0.013271884973686131  0.5757447890623912  0.8401697321974777  1.0000
  C   C26       1.0  0.8439909161709809  0.8641224805547463  0.7386345635373379  1.0000
  H   H12       1.0  0.11622380616768008  0.26698990669764017  0.12029909870493594  1.0000
  H   H13       1.0  0.9681170666293717  0.6920446590271854  0.17384683542482393  1.0000
  H   H14       1.0  0.871238310311841  0.8523947026655916  0.02932532364322227  1.0000
  H   H15       1.0  0.952147070275604  0.6630471252997177  0.6432533917022467  1.0000
  H   H16       1.0  0.08309753025934352  0.36648950726945384  0.5758663510070026  1.0000
  H   H17       1.0  0.877997219316446  0.9638626657603048  0.6999310936059673  1.0000
  H   H18       1.0  0.7882079495835308  0.8941196365592862  0.8041141750088108  1.0000
  H   H19       1.0  0.8205037472063385  0.8110953017219109  0.6437912030509914  1.0000
  Zn  Zn1       1.0  0.9223205564034502  0.5800055835020606  0.41607689439205414  1.0000
  Zn  Zn2       1.0  0.10801022661208007  0.5779255846475074  0.41668956986882333  1.0000
  C   C27       1.0  0.014021710267707155  0.5712174738155125  0.679942906413916  1.0000
  C   C28       1.0  0.016311088962125617  0.5867154901261845  0.15282371173208809  1.0000
  C   C29       1.0  0.013616388048571787  0.8423963278638729  0.41143630182616364  1.0000
  C   C30       1.0  0.016716357830898858  0.31553490358654956  0.42133038776470877  1.0000
  O   O3        1.0  0.08652570525660613  0.5874396557375241  0.2068296171881228  1.0000
  O   O4        1.0  0.08474126545842824  0.5689135524398481  0.6264015887229113  1.0000
  O   O5        1.0  0.08441300597566248  0.7878939058438357  0.4095806072296351  1.0000
  O   O6        1.0  0.08685390179889489  0.3684593141819401  0.4236504902987641  1.0000
  O   O7        1.0  0.9434768178498891  0.7894718546790569  0.40911597374545106  1.0000
  O   O8        1.0  0.9438050673162703  0.570493234477773  0.625936883577197  1.0000
  O   O9        1.0  0.9455895152400908  0.5890193007088222  0.20636317682378635  1.0000
  O   O10       1.0  0.9459177113561109  0.37003894801626397  0.423184158100401  1.0000
