data_image0
_chemical_formula_structural       NC5OC5NC4H8C6NH7C6SCH8Zn2C4O8
_chemical_formula_sum              "N3 C31 O9 H23 S1 Zn2"
_cell_length_a       19.189071930511275
_cell_length_b       9.274771166103582
_cell_length_c       10.302812801239593
_cell_angle_alpha    85.45577702643503
_cell_angle_beta     89.97791177301549
_cell_angle_gamma    90.58817672672019

_space_group_name_H-M_alt    "P 1"
_space_group_IT_number       1

loop_
  _space_group_symop_operation_xyz
  'x, y, z'

loop_
  _atom_site_type_symbol
  _atom_site_label
  _atom_site_symmetry_multiplicity
  _atom_site_fract_x
  _atom_site_fract_y
  _atom_site_fract_z
  _atom_site_occupancy
  N   N1        1.0  0.6641674483990708  0.5784880195004725  0.5648805542657256  1.0000
  C   C1        1.0  0.6099685287879957  0.6297125749766905  0.5465101411822972  1.0000
  C   C2        1.0  0.5425520521618162  0.6934273859791358  0.5236601092872797  1.0000
  C   C3        1.0  0.5333985822208134  0.8010832746858516  0.4220964343018717  1.0000
  C   C4        1.0  0.46791115882471657  0.8630551952796409  0.4000259880824902  1.0000
  C   C5        1.0  0.4109178525303299  0.817256227088077  0.47816454283793597  1.0000
  O   O1        1.0  0.3462797667276176  0.8832618453425578  0.45382323288426707  1.0000
  C   C6        1.0  0.2809757559864864  0.817045686085816  0.4776008555502964  1.0000
  C   C7        1.0  0.22464725148782813  0.9032258613810171  0.507708966213879  1.0000
  C   C8        1.0  0.1585371725622116  0.8415710214330172  0.530629292533786  1.0000
  C   C9        1.0  0.1480927166556136  0.6929337424898259  0.5223371972828754  1.0000
  C   C10       1.0  0.0800354168936844  0.6294405907295535  0.5457811600863552  1.0000
  N   N2        1.0  0.0253213494469727  0.5783943051457672  0.5646295028101331  1.0000
  C   C11       1.0  0.20394625934109742  0.6064111573404909  0.49031284891252147  1.0000
  C   C12       1.0  0.2700476988950893  0.6681098051818566  0.46743607234237167  1.0000
  C   C13       1.0  0.4205585368431999  0.7106029177107668  0.5813444498146708  1.0000
  C   C14       1.0  0.4860370240846126  0.648626438122881  0.6034762628829067  1.0000
  H   H1        1.0  0.5768290388374757  0.8371955576712802  0.36016448290707825  1.0000
  H   H2        1.0  0.4612959741310425  0.9464020690815934  0.32144284138964735  1.0000
  H   H3        1.0  0.2322617195395802  0.01826932600353404  0.514093059328881  1.0000
  H   H4        1.0  0.11563184548318622  0.9097337411387716  0.5546131755240982  1.0000
  H   H5        1.0  0.1963261304305448  0.49153780749027604  0.4823541025156909  1.0000
  H   H6        1.0  0.3122450915129974  0.6001788992738883  0.4400391207049936  1.0000
  H   H7        1.0  0.3778492125087893  0.6769090695165725  0.6457248890226713  1.0000
  H   H8        1.0  0.4926646175473339  0.5664434255249529  0.6831486356957008  1.0000
  C   C15       1.0  0.8426082577439687  0.1548451846803982  0.5654641541200751  1.0000
  C   C16       1.0  0.826572296339081  0.23815809600741902  0.4493754089675983  1.0000
  C   C17       1.0  0.8170428082248141  0.17311118261271566  0.33254553713918256  1.0000
  C   C18       1.0  0.823585815723843  0.023373875416607962  0.3309581274054414  1.0000
  C   C19       1.0  0.8383331341326444  0.9387418702452471  0.44545289531610444  1.0000
  C   C20       1.0  0.8468871845370178  0.0020261136365209436  0.5640571561350278  1.0000
  N   N3        1.0  0.8014350038324095  0.2595234808743532  0.215180489241571  1.0000
  H   H9        1.0  0.9210357846886681  0.23448515698579772  0.8495417893665635  1.0000
  H   H10       1.0  0.823058558139453  0.3547517154491009  0.44887914582108884  1.0000
  H   H11       1.0  0.8165836646667616  0.9718884693720631  0.2410690987381341  1.0000
  H   H12       1.0  0.8414042731888268  0.8225770583776831  0.4417325493699276  1.0000
  H   H13       1.0  0.8968867766115948  0.7049468317400137  0.7573328658444023  1.0000
  H   H14       1.0  0.7966336095791149  0.3715986274390135  0.21514165921195638  1.0000
  H   H15       1.0  0.7944984574835223  0.21205526553227647  0.12742650196488306  1.0000
  C   C21       1.0  0.8447477368079982  0.5784356386741094  0.18351218109305048  1.0000
  C   C22       1.0  0.8219725611481296  0.7222921065231624  0.17209232747462866  1.0000
  C   C23       1.0  0.8104596183600811  0.7936578328622548  0.04943506187379177  1.0000
  C   C24       1.0  0.8219724975585101  0.7222919551174163  0.9369411580805435  1.0000
  C   C25       1.0  0.8447476915572285  0.5784356289648405  0.9460090847701578  1.0000
  C   C26       1.0  0.8560024521487606  0.5071977938939745  0.06983346984044214  1.0000
  S   S1        1.0  0.7815046256391952  0.9775625093156612  0.03633908789117246  1.0000
  C   C27       1.0  0.6895844681521904  0.9271879838773335  0.039998652094203516  1.0000
  H   H16       1.0  0.8533046108724665  0.5242046233770243  0.5151301845622585  1.0000
  H   H17       1.0  0.8129253118725951  0.7794323062492432  0.25812297231708303  1.0000
  H   H18       1.0  0.812925171302454  0.7794320984945557  0.8427726597770855  1.0000
  H   H19       1.0  0.8735572694459313  0.3962253644632916  0.07773571487630693  1.0000
  H   H20       1.0  0.8533033095269308  0.524203874818691  0.6221146011940459  1.0000
  H   H21       1.0  0.6769030931161315  0.8630203241387698  0.9564674977029726  1.0000
  H   H22       1.0  0.6769033989457633  0.863021781864558  0.13270218710780493  1.0000
  H   H23       1.0  0.6578345053956302  0.026760739486230367  0.03291920919683756  1.0000
  Zn  Zn1       1.0  0.7683886522310257  0.5784571274104733  0.5648156043057958  1.0000
  Zn  Zn2       1.0  0.9211001036154974  0.578413441041439  0.5647050873151094  1.0000
  C   C28       1.0  0.8447171227721342  0.5726890911539826  0.801890401454088  1.0000
  C   C29       1.0  0.8447733098713668  0.584183296876617  0.3276304133633579  1.0000
  C   C30       1.0  0.8460747810816044  0.8418908549458703  0.5591495517316583  1.0000
  C   C31       1.0  0.8434155906988239  0.31497980003254544  0.5703713352185948  1.0000
  O   O2        1.0  0.9027350605781289  0.5860893916448484  0.3759558784793347  1.0000
  O   O3        1.0  0.9026598246674902  0.5707487512402158  0.7534806845787347  1.0000
  O   O4        1.0  0.9037553696853912  0.7881325802465926  0.557465729070437  1.0000
  O   O5        1.0  0.9016394635022782  0.3687055729722628  0.5719707366642941  1.0000
  O   O6        1.0  0.7878492402313294  0.7881649954961278  0.5575499549874932  1.0000
  O   O7        1.0  0.7867537039635858  0.5707828995584132  0.7535648383938665  1.0000
  O   O8        1.0  0.7868289396667716  0.5861234896961349  0.3760384714703966  1.0000
  O   O9        1.0  0.7857333425359553  0.3687396607062361  0.5720534270095772  1.0000
