data_image0
_chemical_formula_structural       NC9NC3OH6C6NH5C6FH3Zn2C4O8
_chemical_formula_sum              "N3 C28 O9 H14 F1 Zn2"
_cell_length_a       15.78231758774541
_cell_length_b       9.274771166103584
_cell_length_c       9.275646106892308
_cell_angle_alpha    84.84724178978938
_cell_angle_beta     90.10253560025424
_cell_angle_gamma    90.23039320205511

_space_group_name_H-M_alt    "P 1"
_space_group_IT_number       1

loop_
  _space_group_symop_operation_xyz
  'x, y, z'

loop_
  _atom_site_type_symbol
  _atom_site_label
  _atom_site_symmetry_multiplicity
  _atom_site_fract_x
  _atom_site_fract_y
  _atom_site_fract_z
  _atom_site_occupancy
  N   N1        1.0  0.8072314784121817  0.5866143576728102  0.40776428928812614  1.0000
  C   C1        1.0  0.7581451813706361  0.495183590328162  0.4346921195188997  1.0000
  C   C2        1.0  0.6972028831426753  0.38169577964806156  0.4681164916261469  1.0000
  C   C3        1.0  0.7160012547062098  0.23913774144780042  0.5100146343689032  1.0000
  C   C4        1.0  0.638851855976996  0.17004765282005585  0.5304029696152146  1.0000
  C   C5        1.0  0.5777108295782718  0.2755564279165281  0.4994394271057265  1.0000
  C   C6        1.0  0.48450160835240114  0.2560483813648941  0.5052661006380923  1.0000
  C   C7        1.0  0.43148157220003835  0.3756577566904322  0.4699816300033352  1.0000
  C   C8        1.0  0.3431781339938523  0.35966154142338047  0.4747673209134269  1.0000
  C   C9        1.0  0.2894826950616584  0.48275111121595793  0.43844706533069355  1.0000
  N   N2        1.0  0.24632436041546374  0.5816992598606419  0.40924883483620644  1.0000
  C   C10       1.0  0.3072123659397257  0.22387790499595003  0.5148922566593175  1.0000
  C   C11       1.0  0.3593029694891988  0.10451576710007227  0.5501086200607688  1.0000
  C   C12       1.0  0.44741808176745135  0.120072555735272  0.5454529861895444  1.0000
  O   O1        1.0  0.614927274177507  0.40059919516361386  0.4626352896921763  1.0000
  H   H1        1.0  0.7781702072857213  0.1910626588721036  0.524087677518499  1.0000
  H   H2        1.0  0.629431042163362  0.05644669516698909  0.5638074208359726  1.0000
  H   H3        1.0  0.45872755377355806  0.48132155815419514  0.43875206774128755  1.0000
  H   H4        1.0  0.23901396099988906  0.2103299670645706  0.5189431291571859  1.0000
  H   H5        1.0  0.3313310511747674  0.9995743332043967  0.5811251516061325  1.0000
  H   H6        1.0  0.4859314014268733  0.025529238953976748  0.5733559948869305  1.0000
  C   C13       1.0  0.024180894368173597  0.16058095852992316  0.4092844923060244  1.0000
  C   C14       1.0  0.004662693595421711  0.24548310799194062  0.28014573050559677  1.0000
  C   C15       1.0  0.9930549606260664  0.18194729618092964  0.15021480234577056  1.0000
  C   C16       1.0  0.0010096895169018356  0.032141388296457844  0.14848196802845393  1.0000
  C   C17       1.0  0.018960854652497083  0.9459562390112746  0.2758423493291912  1.0000
  C   C18       1.0  0.029382975166480918  0.007721393981372059  0.40774117253266007  1.0000
  N   N3        1.0  0.9740570780975932  0.269958230473059  0.019659215120439773  1.0000
  H   H7        1.0  0.11958634479619173  0.23580848903851392  0.7254878324674485  1.0000
  H   H8        1.0  0.9924797174863614  0.9818142192574013  0.04851458333635028  1.0000
  H   H9        1.0  0.09020869917309571  0.7076849305636341  0.6228575944569628  1.0000
  H   H10       1.0  0.9682195096041653  0.3820979750510507  0.0195925992694368  1.0000
  H   H11       1.0  0.9656072657294252  0.22362208703608433  0.9220657608105746  1.0000
  C   C19       1.0  0.026711044580710393  0.5886669060454919  0.9846638156181724  1.0000
  C   C20       1.0  0.10438115914837787  0.6028739935452736  0.056959485649978214  1.0000
  C   C21       1.0  0.18091790073722358  0.6035490617674708  0.9817696091596995  1.0000
  C   C22       1.0  0.1811277952033059  0.5898841259190308  0.833419237127031  1.0000
  C   C23       1.0  0.10480012534958583  0.5780672075198174  0.7591917152528174  1.0000
  C   C24       1.0  0.026852779667185366  0.5796354301038609  0.8323618150513381  1.0000
  F   F1        1.0  0.255195015882979  0.6157411160819759  0.053431951462882044  1.0000
  H   H12       1.0  0.8295275743911206  0.47367997225726355  0.09736599031679827  1.0000
  H   H13       1.0  0.24054547146634264  0.5898224914157445  0.7753036484076388  1.0000
  H   H14       1.0  0.8933985202724398  0.5081610331374241  0.5571993065511767  1.0000
  Zn  Zn1       1.0  0.9339441733180901  0.5851920249917388  0.4082010322367233  1.0000
  Zn  Zn2       1.0  0.11961156669808254  0.5831096943009032  0.40882391218952585  1.0000
  C   C25       1.0  0.02678883738324277  0.5755963170071556  0.6721392066367662  1.0000
  C   C26       1.0  0.02676894131473738  0.5927071980059331  0.1448858829403685  1.0000
  C   C27       1.0  0.028394337846719284  0.8476551162288173  0.4022812272297911  1.0000
  C   C28       1.0  0.025163366867022124  0.32064666569072453  0.41474394224302324  1.0000
  O   O2        1.0  0.09724814151920541  0.5932666304714975  0.19889426354068962  1.0000
  O   O3        1.0  0.09722688595160983  0.573455360005503  0.6186031640024323  1.0000
  O   O4        1.0  0.09852239829926579  0.7931462756931215  0.40069093042237397  1.0000
  O   O5        1.0  0.0959525658611089  0.3735757269658293  0.4168063886683231  1.0000
  O   O6        1.0  0.9576031107959031  0.7947259930390604  0.4002185555377726  1.0000
  O   O7        1.0  0.956307609073325  0.5750368111572375  0.6181307090019987  1.0000
  O   O8        1.0  0.9563288640983971  0.5948480498464488  0.19842007330935307  1.0000
  O   O9        1.0  0.9550332883915804  0.375157134871079  0.416332306669259  1.0000
