data_image0
_chemical_formula_structural       NC9NC3OH6C10ClC2H9C10OH6Zn2C4O8
_chemical_formula_sum              "N2 C38 O10 H21 Cl1 Zn2"
_cell_length_a       15.78231758774541
_cell_length_b       10.299769246903262
_cell_length_c       10.298964903136534
_cell_angle_alpha    85.56198586416822
_cell_angle_beta     90.08041761482255
_cell_angle_gamma    89.64978214069643

_space_group_name_H-M_alt    "P 1"
_space_group_IT_number       1

loop_
  _space_group_symop_operation_xyz
  'x, y, z'

loop_
  _atom_site_type_symbol
  _atom_site_label
  _atom_site_symmetry_multiplicity
  _atom_site_fract_x
  _atom_site_fract_y
  _atom_site_fract_z
  _atom_site_occupancy
  N   N1        1.0  0.798209429307746  0.4132624571659207  0.5698767019293325  1.0000
  C   C1        1.0  0.7496602742004196  0.3311997935040607  0.5939553008689191  1.0000
  C   C2        1.0  0.6893846995981493  0.22934008076437462  0.6238430453694024  1.0000
  C   C3        1.0  0.7090206013414077  0.10138786758023666  0.6613074546213533  1.0000
  C   C4        1.0  0.6322770857511502  0.03937721584619847  0.6795387292589435  1.0000
  C   C5        1.0  0.5705161818779921  0.13407649737166372  0.651852061228023  1.0000
  C   C6        1.0  0.477421545878208  0.1165680470507886  0.6570626743944956  1.0000
  C   C7        1.0  0.42369883803995934  0.2239215533393213  0.6255113247464998  1.0000
  C   C8        1.0  0.335489355361082  0.20956504379109078  0.6297910637238576  1.0000
  C   C9        1.0  0.2810708020010206  0.3200420560806545  0.597313464296596  1.0000
  N   N2        1.0  0.2373311769389315  0.40885132049573264  0.5712043769233435  1.0000
  C   C10       1.0  0.30032125989125713  0.087695247309173  0.6656711441124354  1.0000
  C   C11       1.0  0.35311308139242487  0.9805636913529426  0.6971616195732595  1.0000
  C   C12       1.0  0.4411368195385562  0.9945258045623823  0.6929981799239802  1.0000
  O   O1        1.0  0.6069980130197781  0.24630745619091488  0.6189422961630842  1.0000
  H   H1        1.0  0.7714720105833317  0.05823779135722584  0.6738909448880301  1.0000
  H   H2        1.0  0.6235236744396976  0.9374154388211382  0.7094083595883958  1.0000
  H   H3        1.0  0.45032408996616474  0.31875786431778086  0.597585538283357  1.0000
  H   H4        1.0  0.23220243087803913  0.07553602979063688  0.6692937379232322  1.0000
  H   H5        1.0  0.3257576489999972  0.8863757306117657  0.7248969144866697  1.0000
  H   H6        1.0  0.4802055513418304  0.9096700676356165  0.7179491045193578  1.0000
  C   C13       1.0  0.017694680299261897  0.029692530175905892  0.5705350624985199  1.0000
  C   C14       1.0  0.02552520188872019  0.0391613167060496  0.4343427348026676  1.0000
  C   C15       1.0  0.029573977088629622  0.9268189869933293  0.3653438747758668  1.0000
  C   C16       1.0  0.025686043703406082  0.8038715435559776  0.4343651657244034  1.0000
  C   C17       1.0  0.01785403703287191  0.7924111659254109  0.5705572141300681  1.0000
  C   C18       1.0  0.013902437478462867  0.9058782016992655  0.6378794927961491  1.0000
  C   C19       1.0  0.03785948160638152  0.9378891573016795  0.2212638681588501  1.0000
  C   C20       1.0  0.09279860080895364  0.8543951573108697  0.15893855766530707  1.0000
  C   C21       1.0  0.10052172336282678  0.8650112767339847  0.0233167525409379  1.0000
  C   C22       1.0  0.05355215369364493  0.9588558561061598  0.9483669097179703  1.0000
  Cl  Cl1       1.0  0.0633352760905159  0.9719271100600979  0.7782276095982348  1.0000
  C   C23       1.0  0.9987745165099895  0.04226838806629707  0.009201709146400951  1.0000
  C   C24       1.0  0.9909011146780471  0.0320463743262438  0.14480276788689572  1.0000
  H   H7        1.0  0.014678473581437809  0.353538491547258  0.6224276587976616  1.0000
  H   H8        1.0  0.029661206540848792  0.13412178542100014  0.38176364850103917  1.0000
  H   H9        1.0  0.027614694964482198  0.7170146824441911  0.3814797064940156  1.0000
  H   H10       1.0  0.00786126228150818  0.8978053895563561  0.742945533277735  1.0000
  H   H11       1.0  0.014909718962075269  0.4605897981364155  0.6224590876604328  1.0000
  H   H12       1.0  0.13057962683898916  0.7820780728512227  0.21516075627523576  1.0000
  H   H13       1.0  0.14320270560769544  0.8004311094359561  0.9766554072858561  1.0000
  H   H14       1.0  0.9620932663698263  0.11486434206145993  0.9515303326689164  1.0000
  H   H15       1.0  0.9473032586141155  0.09659160046494898  0.1897360172635838  1.0000
  C   C25       1.0  0.017789258290455304  0.4110539994053368  0.1891551241733653  1.0000
  C   C26       1.0  0.10636706859942419  0.423539068626485  0.18742327664526082  1.0000
  C   C27       1.0  0.1512465675152277  0.42986451913548124  0.0692768641523489  1.0000
  C   C28       1.0  0.10630311592588798  0.42352969423543557  0.9521750546782366  1.0000
  C   C29       1.0  0.017759417375102778  0.4110497421127806  0.9519371504253142  1.0000
  C   C30       1.0  0.9739993297976156  0.40488179630010973  0.07093160162739176  1.0000
  C   C31       1.0  0.24476256913968808  0.44304494391223675  0.06578331915611724  1.0000
  C   C32       1.0  0.2989023611712207  0.4506755514899698  0.17099891533528486  1.0000
  C   C33       1.0  0.37922723329658137  0.4619961468724658  0.11927855540728438  1.0000
  C   C34       1.0  0.36972709365727785  0.4606570142078594  0.9863407109395199  1.0000
  O   O2        1.0  0.2891996025961896  0.44930766933062194  0.957570030681854  1.0000
  H   H16       1.0  0.14003466135556963  0.4282847417244684  0.278369574731313  1.0000
  H   H17       1.0  0.14050766509167967  0.4283504899241577  0.8608341117572337  1.0000
  H   H18       1.0  0.9056898247520175  0.39525348579423053  0.07153486229300476  1.0000
  H   H19       1.0  0.28297839839731065  0.44843106352884216  0.27318929646386003  1.0000
  H   H20       1.0  0.43790929330767736  0.4702666985099033  0.1723180328503755  1.0000
  H   H21       1.0  0.4202472564212023  0.4677770326082078  0.9153232706576068  1.0000
  Zn  Zn1       1.0  0.924930475459484  0.41198602943165824  0.570267334053457  1.0000
  Zn  Zn2       1.0  0.11061009966524343  0.41011714882768674  0.5708243614256927  1.0000
  C   C35       1.0  0.017762095794587183  0.4058769331355927  0.8077548923032253  1.0000
  C   C36       1.0  0.01778050728317271  0.4162278633147676  0.33333693678016707  1.0000
  C   C37       1.0  0.017819732578657526  0.6482412015048322  0.565377574802184  1.0000
  C   C38       1.0  0.01772280681098226  0.17386203529906985  0.5757143232883812  1.0000
  O   O3        1.0  0.08824201889025152  0.41724936318396644  0.38193705902807507  1.0000
  O   O4        1.0  0.088227122435595  0.40343601642232646  0.7595771670458844  1.0000
  O   O5        1.0  0.08827271492035232  0.5991482377981947  0.5638557654936835  1.0000
  O   O6        1.0  0.08819636305136508  0.22153715173647656  0.5776583630101548  1.0000
  O   O7        1.0  0.9473441487100203  0.6005660271620392  0.5634333322720774  1.0000
  O   O8        1.0  0.9472985565500406  0.4048553660717997  0.7591546646201877  1.0000
  O   O9        1.0  0.947313453112659  0.4186686675862086  0.3815129951099825  1.0000
  O   O10       1.0  0.9472677972645597  0.2229564468495113  0.5772343964652662  1.0000
