data_image0
_chemical_formula_structural       NC9NC3OH6C7OCH10C8H6Zn2C4O8
_chemical_formula_sum              "N2 C32 O10 H22 Zn2"
_cell_length_a       15.78231758774541
_cell_length_b       10.30083208314754
_cell_length_c       9.275144076552241
_cell_angle_alpha    85.93959476357365
_cell_angle_beta     90.54614249944106
_cell_angle_gamma    89.62603918792362

_space_group_name_H-M_alt    "P 1"
_space_group_IT_number       1

loop_
  _space_group_symop_operation_xyz
  'x, y, z'

loop_
  _atom_site_type_symbol
  _atom_site_label
  _atom_site_symmetry_multiplicity
  _atom_site_fract_x
  _atom_site_fract_y
  _atom_site_fract_z
  _atom_site_occupancy
  N   N1        1.0  0.7902844410494595  0.403260236362818  0.4121779700378909  1.0000
  C   C1        1.0  0.7418846163197259  0.3213703059958628  0.4389357514128185  1.0000
  C   C2        1.0  0.6817943988612397  0.2197249996866242  0.47214905104339383  1.0000
  C   C3        1.0  0.7016627203895297  0.09204156594079338  0.5137821688895379  1.0000
  C   C4        1.0  0.6250322375678405  0.030161691207745582  0.5340419536547727  1.0000
  C   C5        1.0  0.5630995340879589  0.12466233088528476  0.5032744995224232  1.0000
  C   C6        1.0  0.4700371450122232  0.10719124151424755  0.5090647850897604  1.0000
  C   C7        1.0  0.4161188107185876  0.2143184201953738  0.4740028465908299  1.0000
  C   C8        1.0  0.3279358074963844  0.19999259528903537  0.47875868976844804  1.0000
  C   C9        1.0  0.2733158923515785  0.31023663777904487  0.4426674530710355  1.0000
  N   N2        1.0  0.2294143916056865  0.39885861562148367  0.41365332609610184  1.0000
  C   C10       1.0  0.29299011981352685  0.07838016197589483  0.518630911466246  1.0000
  C   C11       1.0  0.3459771862890123  0.9714744958562818  0.5536251964379408  1.0000
  C   C12       1.0  0.43397516570603734  0.98540675857746  0.5489985921944271  1.0000
  O   O1        1.0  0.5993772465483534  0.2366571987861221  0.46670289487229266  1.0000
  H   H1        1.0  0.7641922418353184  0.0489817798593364  0.5277659105111854  1.0000
  H   H2        1.0  0.6164641157556567  0.9284142028353541  0.5672351911954248  1.0000
  H   H3        1.0  0.44257096505758714  0.30895442431644127  0.44296994757407426  1.0000
  H   H4        1.0  0.22489370633357159  0.06624691806422668  0.5226565075903635  1.0000
  H   H5        1.0  0.31879367033209643  0.8774854755025424  0.584446408610453  1.0000
  H   H6        1.0  0.4731985887732347  0.9007299994062428  0.5767256870692962  1.0000
  C   C13       1.0  0.009877827002607198  0.0197233602354805  0.4130669871914663  1.0000
  C   C14       1.0  0.9856010719313608  0.028460828879279358  0.2666229529694628  1.0000
  C   C15       1.0  0.9723900965892867  0.9157258637893838  0.1933144761774792  1.0000
  C   C16       1.0  0.9855381093445138  0.7932001291215646  0.2662418968624757  1.0000
  C   C17       1.0  0.009829177208045657  0.7823855113110592  0.4127768132220596  1.0000
  C   C18       1.0  0.02165820096434312  0.8961831949201312  0.4854115014805244  1.0000
  C   C19       1.0  0.9488389167384188  0.9262409177908795  0.03556985929165535  1.0000
  O   O2        1.0  0.02370921801073388  0.930887581505603  0.9534203270374468  1.0000
  C   C20       1.0  0.002452214157225633  0.9407957317968916  0.8050523213339176  1.0000
  H   H7        1.0  0.020136464885115876  0.34379327219014616  0.46872870311083636  1.0000
  H   H8        1.0  0.9768849028076432  0.12287079988379211  0.20897013718556434  1.0000
  H   H9        1.0  0.9767779463713078  0.7064614822007124  0.20832748350056188  1.0000
  H   H10       1.0  0.040388664152938056  0.8886815268800564  0.5983512721487096  1.0000
  H   H11       1.0  0.05657971216951238  0.5547529322514698  0.6887673837579089  1.0000
  H   H12       1.0  0.9097136135001707  0.015752651336362163  0.01134151938805217  1.0000
  H   H13       1.0  0.9097460737103352  0.8406607798956196  0.01101111427589774  1.0000
  H   H14       1.0  0.06184598689394937  0.9443400637835361  0.7419399721832989  1.0000
  H   H15       1.0  0.9662189137170044  0.03187788783645406  0.7748717100528992  1.0000
  H   H16       1.0  0.9662319543029785  0.854393494583834  0.7745145637466302  1.0000
  C   C21       1.0  0.007857776848985582  0.39841714193291655  0.9896306918197924  1.0000
  C   C22       1.0  0.9526054238841491  0.4836595068710284  0.05538658077766167  1.0000
  C   C23       1.0  0.9041517867679678  0.5752677389392049  0.9722539739298112  1.0000
  C   C24       1.0  0.9100740794824373  0.5835066414160851  0.8218402359979033  1.0000
  C   C25       1.0  0.963567328044276  0.49818667936127453  0.7543226404960034  1.0000
  C   C26       1.0  0.011849200414150819  0.40369176704027177  0.8362131260409694  1.0000
  C   C27       1.0  0.8603895250363753  0.6786969014661577  0.7363322216505912  1.0000
  C   C28       1.0  0.8187937340902988  0.758393502234601  0.6647258208016705  1.0000
  H   H17       1.0  0.18401996052363556  0.226185020983259  0.10889140318827972  1.0000
  H   H18       1.0  0.9483671357953626  0.4815190435694554  0.1720432952556252  1.0000
  H   H19       1.0  0.8626331738880111  0.6406129816695187  0.025528182169175073  1.0000
  H   H20       1.0  0.9659962373209224  0.5035583110175355  0.6372441377904972  1.0000
  H   H21       1.0  0.1286226319177488  0.2836234138350393  0.5668365050250176  1.0000
  H   H22       1.0  0.7822812642600684  0.8283501181593598  0.6018687899123178  1.0000
  Zn  Zn1       1.0  0.917007894840716  0.4019866068389508  0.4126120444384751  1.0000
  Zn  Zn2       1.0  0.10269096555367335  0.4001217200032896  0.4132310390547911  1.0000
  C   C29       1.0  0.011093173924463072  0.39752150765939115  0.676192844068428  1.0000
  C   C30       1.0  0.008607714685743059  0.4045884381782667  0.14965038703908304  1.0000
  C   C31       1.0  0.009806907400409227  0.6381903881862143  0.4070875690269301  1.0000
  C   C32       1.0  0.009893918311048907  0.16391799859841627  0.4187557393127631  1.0000
  O   O3        1.0  0.07932515867622575  0.4059462014850683  0.2035893659393097  1.0000
  O   O4        1.0  0.08130488229750132  0.394747356171476  0.6227232531908309  1.0000
  O   O5        1.0  0.08026526296672021  0.589090539748969  0.4054188359498931  1.0000
  O   O6        1.0  0.08036471413579654  0.21160302715997778  0.42089367488683677  1.0000
  O   O7        1.0  0.9393340828940382  0.5905053003200234  0.4049494083876144  1.0000
  O   O8        1.0  0.9403737017590122  0.3961636764333189  0.6222537481775554  1.0000
  O   O9        1.0  0.9383939700261382  0.4073624656966634  0.20311812790454753  1.0000
  O   O10       1.0  0.9394335259923642  0.21301928275693127  0.4204225449266707  1.0000
