data_image0
_chemical_formula_structural       NC9NC3OCH8C12OCH12C12IH9Zn2C4O8
_chemical_formula_sum              "N2 C42 O10 H29 I1 Zn2"
_cell_length_a       17.728193572023454
_cell_length_b       10.299790755002418
_cell_length_c       10.29977335064465
_cell_angle_alpha    85.5398229900983
_cell_angle_beta     90.71329701694225
_cell_angle_gamma    88.43583692371087

_space_group_name_H-M_alt    "P 1"
_space_group_IT_number       1

loop_
  _space_group_symop_operation_xyz
  'x, y, z'

loop_
  _atom_site_type_symbol
  _atom_site_label
  _atom_site_symmetry_multiplicity
  _atom_site_fract_x
  _atom_site_fract_y
  _atom_site_fract_z
  _atom_site_occupancy
  N   N1        1.0  0.7102206599143361  0.38734594534645206  0.5850736442915164  1.0000
  C   C1        1.0  0.649613340398606  0.34991397715370737  0.5980816488221561  1.0000
  C   C2        1.0  0.5741655557890579  0.3033810396952599  0.6142712732883588  1.0000
  C   C3        1.0  0.5622810559776426  0.17533990391916007  0.6237007432162823  1.0000
  C   C4        1.0  0.4855770005815274  0.12588383593231245  0.6386550532953521  1.0000
  C   C5        1.0  0.42742211079953585  0.20854860382602067  0.6561192868537975  1.0000
  C   C6        1.0  0.3493799725275653  0.16349404803424764  0.6778569167702478  1.0000
  C   C7        1.0  0.2880266135366566  0.2489735462369433  0.6423889001114826  1.0000
  C   C8        1.0  0.21375768269149042  0.20966468731724874  0.662539908867608  1.0000
  C   C9        1.0  0.1514251155170471  0.29768162394174014  0.6249973438173297  1.0000
  N   N2        1.0  0.10132314217362365  0.368438713110397  0.5948166703555215  1.0000
  C   C10       1.0  0.20021076053903222  0.08475616014868036  0.7192130392528204  1.0000
  C   C11       1.0  0.2606655543585831  0.9995937893267703  0.7560896096732356  1.0000
  C   C12       1.0  0.3348309132456012  0.038412981532033715  0.7360682205802198  1.0000
  O   O1        1.0  0.44076488792429025  0.3423349655671528  0.654814516654523  1.0000
  C   C13       1.0  0.5084788876975221  0.3997301331588836  0.6062005809454196  1.0000
  H   H1        1.0  0.609214959990066  0.10587963211339123  0.6216043684848069  1.0000
  H   H2        1.0  0.477934853912501  0.022234943560062833  0.6366796602384887  1.0000
  H   H3        1.0  0.2979035761858464  0.345812614211112  0.5979552150169363  1.0000
  H   H4        1.0  0.1430009092774731  0.05346290972740775  0.7353554987135686  1.0000
  H   H5        1.0  0.2500518705287542  0.9034134498969524  0.800984389370215  1.0000
  H   H6        1.0  0.38037186016560565  0.9711724636710427  0.7684933514333638  1.0000
  H   H7        1.0  0.49899581329405596  0.4356910617515415  0.502670964568025  1.0000
  H   H8        1.0  0.5213578238472006  0.4840991389608726  0.6627775442678427  1.0000
  C   C14       1.0  0.9058433492430418  0.9965211139746162  0.5899858901528369  1.0000
  C   C15       1.0  0.8840107564636331  0.9863717575957666  0.7208803526498211  1.0000
  C   C16       1.0  0.8728881260320037  0.8640956212807935  0.7871709289554581  1.0000
  C   C17       1.0  0.8838751708905503  0.7510960384281419  0.7208111897540501  1.0000
  C   C18       1.0  0.905707730081945  0.7592531819370744  0.5899157939035822  1.0000
  C   C19       1.0  0.9165713259511111  0.8824124738712383  0.52523678477262  1.0000
  C   C20       1.0  0.8497950773842723  0.8544120579615248  0.9256512917470825  1.0000
  C   C21       1.0  0.7947360565646547  0.766194290891709  0.9693453300446302  1.0000
  C   C22       1.0  0.7730694375025784  0.7573508069889572  0.099544903653493  1.0000
  C   C23       1.0  0.8059737947282729  0.8360796450510508  0.18771296373336713  1.0000
  C   C24       1.0  0.8612338974266505  0.9248962243421031  0.14589564445919656  1.0000
  C   C25       1.0  0.8826665158108871  0.9333899882917019  0.015163540680899541  1.0000
  O   O2        1.0  0.8961247214079693  0.005884677571954322  0.23063344194839097  1.0000
  C   C26       1.0  0.8799583809902234  0.007603318756204126  0.3655671010084231  1.0000
  H   H9        1.0  0.9141955307072718  0.32783832878243446  0.5401315959564081  1.0000
  H   H10       1.0  0.8746045496850955  0.07383772001071365  0.7710748964155993  1.0000
  H   H11       1.0  0.8763568641723726  0.6565439873297705  0.7719918794711602  1.0000
  H   H12       1.0  0.9334148296487218  0.8894738489587274  0.42425725169200695  1.0000
  H   H13       1.0  0.9139893801343304  0.4349117820446908  0.540022107472955  1.0000
  H   H14       1.0  0.7677376195302985  0.7052903224404269  0.9024630847794587  1.0000
  H   H15       1.0  0.7304516147020627  0.689430953540038  0.1321620909039799  1.0000
  H   H16       1.0  0.7880991397324046  0.8271640802833591  0.2879344774705  1.0000
  H   H17       1.0  0.9258933808219656  0.0008537347673942332  0.9840743865100339  1.0000
  H   H18       1.0  0.8929992556035234  0.9104286480444018  0.41651465849322966  1.0000
  H   H19       1.0  0.9155738731279138  0.08050789629785982  0.40866874672162906  1.0000
  H   H20       1.0  0.8197157992782949  0.035421980343021346  0.37850187234481475  1.0000
  C   C27       1.0  0.9057395311801902  0.37799498060234393  0.20858076337967435  1.0000
  C   C28       1.0  0.9741363150329  0.44369176137410354  0.20394139764208544  1.0000
  C   C29       1.0  0.008829806418469538  0.4768712520925959  0.08446147240295221  1.0000
  C   C30       1.0  0.9742089445989182  0.44347409430971685  0.9686736123195525  1.0000
  C   C31       1.0  0.9058115283777379  0.37777934904933663  0.9713210039266764  1.0000
  C   C32       1.0  0.871960111446119  0.3454065845498513  0.09175227144398757  1.0000
  C   C33       1.0  0.08118760183045692  0.5463706587869608  0.08060742114869779  1.0000
  C   C34       1.0  0.09304056242217175  0.6488164597180656  0.16070431521644712  1.0000
  C   C35       1.0  0.16118323494088616  0.7141142566580125  0.15687604268080957  1.0000
  C   C36       1.0  0.21823029314545933  0.6779968934210794  0.0733107495411416  1.0000
  C   C37       1.0  0.20710512771431855  0.5764021033741401  0.9933746492199718  1.0000
  C   C38       1.0  0.1390390523679128  0.5108746321843963  0.9967989080287318  1.0000
  I   I1        1.0  0.3209647891994485  0.7766688747107242  0.06784273909195959  1.0000
  H   H21       1.0  0.8796553048494268  0.3530275896462117  0.5377965090252232  1.0000
  H   H22       1.0  0.001117594914984869  0.4676343098837665  0.29358820703879523  1.0000
  H   H23       1.0  0.00019362347921570398  0.4704055386772478  0.8762056698809135  1.0000
  H   H24       1.0  0.8191946827181005  0.2947256655854515  0.09456296078992654  1.0000
  H   H25       1.0  0.8797607415739208  0.3527103518198609  0.6448793232646497  1.0000
  H   H26       1.0  0.0492760548523814  0.6795100169280717  0.22500226922103075  1.0000
  H   H27       1.0  0.1695210799465774  0.7929879018251309  0.21866268787156146  1.0000
  H   H28       1.0  0.25123987236150236  0.547926869807963  0.9287945822811898  1.0000
  H   H29       1.0  0.13201273769044608  0.4313966980568059  0.9352058925394178  1.0000
  Zn  Zn1       1.0  0.82308440080384  0.38188625404795834  0.587892771209779  1.0000
  Zn  Zn2       1.0  0.9884594297696361  0.3738877976221826  0.5920081821123288  1.0000
  C   C39       1.0  0.9057971520811486  0.3726464796576525  0.8271471691679062  1.0000
  C   C40       1.0  0.9057484841031241  0.3831291232622749  0.35275395641071583  1.0000
  C   C41       1.0  0.905728973379798  0.6150822611357525  0.5847537965527925  1.0000
  C   C42       1.0  0.9058166066575529  0.1406917841826365  0.5951473970036725  1.0000
  O   O3        1.0  0.9685104514267452  0.381811150137642  0.4027015745405387  1.0000
  O   O4        1.0  0.9685510053638167  0.36789282980453164  0.780322678931773  1.0000
  O   O5        1.0  0.968495104306878  0.5636628299035251  0.5845882943939182  1.0000
  O   O6        1.0  0.9685662960415456  0.18604116208578245  0.5984358602982578  1.0000
  O   O7        1.0  0.8429774780975487  0.5697328923152549  0.5814650916126309  1.0000
  O   O8        1.0  0.8430333788670272  0.37396445254869576  0.777199406761423  1.0000
  O   O9        1.0  0.8429928248408167  0.38788272806458596  0.3995767409700479  1.0000
  O   O10       1.0  0.8430486694633738  0.1921127306964889  0.5953111240966839  1.0000
