data_image0
_chemical_formula_structural       NC9NC3OH6C7F3H5C6SCNH5Zn2C4O8
_chemical_formula_sum              "N3 C30 O9 H16 F3 S1 Zn2"
_cell_length_a       15.78231758774541
_cell_length_b       9.272718291674593
_cell_length_c       10.302218930750287
_cell_angle_alpha    85.98261342229135
_cell_angle_beta     90.10197945546608
_cell_angle_gamma    89.20559360488726

_space_group_name_H-M_alt    "P 1"
_space_group_IT_number       1

loop_
  _space_group_symop_operation_xyz
  'x, y, z'

loop_
  _atom_site_type_symbol
  _atom_site_label
  _atom_site_symmetry_multiplicity
  _atom_site_fract_x
  _atom_site_fract_y
  _atom_site_fract_z
  _atom_site_occupancy
  N   N1        1.0  0.7907246497974401  0.5692968741931692  0.580899859462366  1.0000
  C   C1        1.0  0.7425955429106187  0.47818410746333484  0.6043563317227043  1.0000
  C   C2        1.0  0.6828413503384978  0.36509101692902046  0.633471865686029  1.0000
  C   C3        1.0  0.7031321723134685  0.2230278848051177  0.6699662782364328  1.0000
  C   C4        1.0  0.626706075122201  0.15417851641234304  0.6877274318071731  1.0000
  C   C5        1.0  0.5644604655205708  0.2593214857597963  0.6607586597845463  1.0000
  C   C6        1.0  0.47145546687202033  0.23988214123067397  0.6658365170168757  1.0000
  C   C7        1.0  0.4171832435670161  0.3590749053729181  0.6350990427132801  1.0000
  C   C8        1.0  0.3290472631361381  0.34313510762160426  0.6392699228276228  1.0000
  C   C9        1.0  0.2740632038345432  0.4657958485467939  0.6076298813803709  1.0000
  N   N2        1.0  0.2298689846375729  0.5643992590939051  0.5821940829553082  1.0000
  C   C10       1.0  0.29450300375971217  0.20782514365537044  0.6742260570509901  1.0000
  C   C11       1.0  0.3478432056962392  0.08887880642107636  0.7049043385054823  1.0000
  C   C12       1.0  0.43579546050481405  0.10438071258801052  0.7008467675788091  1.0000
  O   O1        1.0  0.6003678332922644  0.3839295891272218  0.6286997244736972  1.0000
  H   H1        1.0  0.765804431590467  0.17511910933012478  0.6822226662961823  1.0000
  H   H2        1.0  0.6184745563987797  0.040972113976128315  0.7168240924655758  1.0000
  H   H3        1.0  0.44332303923090427  0.46437005061205494  0.6078922516330622  1.0000
  H   H4        1.0  0.22644642680653265  0.19432496367556482  0.6777564537079505  1.0000
  H   H5        1.0  0.32096991083982457  0.9843035133645027  0.7319255533326023  1.0000
  H   H6        1.0  0.4752985502697509  0.01016683541884622  0.7251543748124225  1.0000
  C   C13       1.0  0.012145616219791046  0.14344514263236882  0.5786843841615088  1.0000
  C   C14       1.0  0.9604752446249253  0.22534551117265297  0.4888067440399806  1.0000
  C   C15       1.0  0.9028113358365425  0.15846709975454032  0.4091556996340087  1.0000
  C   C16       1.0  0.8990629451816802  0.007219259483286946  0.41673516464479854  1.0000
  C   C17       1.0  0.9507960752814412  0.9243594851808793  0.5038035344493901  1.0000
  C   C18       1.0  0.008456138946010494  0.9902398171523046  0.584420759453274  1.0000
  C   C19       1.0  0.8495979636510117  0.2479830625793229  0.31101370168181774  1.0000
  F   F1        1.0  0.8278344700834919  0.37963897522967116  0.35813506343239543  1.0000
  F   F2        1.0  0.7756253449787711  0.17741108924918136  0.2836701681020293  1.0000
  F   F3        1.0  0.895285140426126  0.2722702440024527  0.197420039703911  1.0000
  H   H7        1.0  0.11281560243540317  0.2209797078602096  0.8591777718012636  1.0000
  H   H8        1.0  0.9638562799815269  0.34227740737136547  0.48277390154474076  1.0000
  H   H9        1.0  0.856695793586443  0.9526071471139325  0.3541764062536022  1.0000
  H   H10       1.0  0.9473380244011976  0.8076287383509331  0.5055401768220849  1.0000
  H   H11       1.0  0.19039356060003254  0.8722770149461219  0.7412224590345184  1.0000
  C   C20       1.0  0.010221584916217942  0.5669108971291332  0.20027760803791383  1.0000
  C   C21       1.0  0.09032180711795473  0.49884013831921475  0.203836406797401  1.0000
  C   C22       1.0  0.13014389189781095  0.46451530487334614  0.08862683458457488  1.0000
  C   C23       1.0  0.0905291968122634  0.4986592633175128  0.9686815591956789  1.0000
  C   C24       1.0  0.010380169930573667  0.5667740560672319  0.962827489460667  1.0000
  C   C25       1.0  0.9706523184923114  0.6004732979363265  0.07919257364918719  1.0000
  S   S1        1.0  0.23253543656400044  0.378181478612307  0.09461239770536234  1.0000
  C   C26       1.0  0.18897952231285553  0.20348458267248581  0.10555781743561465  1.0000
  N   N3        1.0  0.16039928200676734  0.08896296852611929  0.11273342761594285  1.0000
  H   H12       1.0  0.979748873509451  0.5928842455154756  0.5262538213971812  1.0000
  H   H13       1.0  0.12206110365875067  0.47195479329029927  0.29582171045254513  1.0000
  H   H14       1.0  0.12241064426887031  0.4716498718946653  0.8803992300709972  1.0000
  H   H15       1.0  0.908873978956484  0.6529523671247661  0.07560101364725225  1.0000
  H   H16       1.0  0.859347570816599  0.6953018340484828  0.7445668592900097  1.0000
  Zn  Zn1       1.0  0.9174522334857275  0.567879675602835  0.5812808099362148  1.0000
  Zn  Zn2       1.0  0.10314142593585228  0.5658046880500167  0.5818236664680114  1.0000
  C   C27       1.0  0.01037334059417061  0.5610560393128046  0.8186503211934812  1.0000
  C   C28       1.0  0.010222338647800863  0.5726301208844045  0.3444543008975154  1.0000
  C   C29       1.0  0.009148102919570562  0.8301785808795316  0.578162519262565  1.0000
  C   C30       1.0  0.011447520521542073  0.30350584773628  0.5849421601300177  1.0000
  O   O2        1.0  0.08069069982075833  0.5737558074482287  0.3930472847052658  1.0000
  O   O3        1.0  0.080838784596787  0.5583543975692054  0.7704689718102932  1.0000
  O   O4        1.0  0.07984844001665814  0.7756742637763203  0.5762733776385833  1.0000
  O   O5        1.0  0.08168098097255803  0.35643595228081204  0.5872427814109313  1.0000
  O   O6        1.0  0.9389126150824052  0.7772484120817018  0.5758616948012254  1.0000
  O   O7        1.0  0.9399029520967765  0.5599302781656468  0.7700572314792806  1.0000
  O   O8        1.0  0.939754867271347  0.5753316380801234  0.3926339830181096  1.0000
  O   O9        1.0  0.9407451484848597  0.3580117725826708  0.5868295769977512  1.0000
