data_image0
_chemical_formula_structural       NC9NC3SH6C7NC2NH7C7OCH10Zn2C4O8
_chemical_formula_sum              "N4 C33 S1 H23 O9 Zn2"
_cell_length_a       16.77567553997237
_cell_length_b       9.273995741505848
_cell_length_c       10.300835455316063
_cell_angle_alpha    85.71363745915025
_cell_angle_beta     90.414716717709
_cell_angle_gamma    91.47570659476311

_space_group_name_H-M_alt    "P 1"
_space_group_IT_number       1

loop_
  _space_group_symop_operation_xyz
  'x, y, z'

loop_
  _atom_site_type_symbol
  _atom_site_label
  _atom_site_symmetry_multiplicity
  _atom_site_fract_x
  _atom_site_fract_y
  _atom_site_fract_z
  _atom_site_occupancy
  N   N1        1.0  0.7594318948562157  0.5988222766791955  0.5784283666310213  1.0000
  C   C1        1.0  0.7050010970384333  0.6536186928950614  0.6201563697731527  1.0000
  C   C2        1.0  0.6374516564607816  0.7216174223855378  0.6719376304311653  1.0000
  C   C3        1.0  0.6401590250669756  0.819478686243445  0.7672185844206467  1.0000
  C   C4        1.0  0.5648011426199319  0.867770066120469  0.7988441056778609  1.0000
  C   C5        1.0  0.5024436516677929  0.8077255613315862  0.7280920225383221  1.0000
  C   C6        1.0  0.4161187596593047  0.8366768821846902  0.7390122421322383  1.0000
  C   C7        1.0  0.3587904975660938  0.748267645963833  0.6805173426558597  1.0000
  C   C8        1.0  0.2773024707541049  0.7749857953420778  0.6903756424607703  1.0000
  C   C9        1.0  0.21928970429412636  0.6836123517056429  0.6304783665615978  1.0000
  N   N2        1.0  0.1726645392641572  0.6101611972054692  0.5823298055822446  1.0000
  C   C10       1.0  0.2523148120924568  0.8904613631765356  0.7585685869262535  1.0000
  C   C11       1.0  0.3085523219417136  0.9790468437878367  0.8166023674440201  1.0000
  C   C12       1.0  0.38988503443960176  0.9527322132093339  0.8070396101409787  1.0000
  S   S1        1.0  0.5423667287255491  0.6943156113121236  0.6267178293515132  1.0000
  H   H1        1.0  0.6947714773153182  0.8548774477980317  0.8130679276887851  1.0000
  H   H2        1.0  0.5569774997749567  0.9432032420479441  0.8725027582093579  1.0000
  H   H3        1.0  0.3770666821046885  0.6579605393875871  0.6278551415773581  1.0000
  H   H4        1.0  0.1894544112388867  0.9120753182081521  0.7667082360657589  1.0000
  H   H5        1.0  0.2890915832950361  0.06867467600636568  0.868945475701596  1.0000
  H   H6        1.0  0.43174032281047364  0.02453685619528033  0.8519680800854734  1.0000
  C   C13       1.0  0.9636671709953475  0.18093723186860577  0.5794080564658977  1.0000
  C   C14       1.0  0.9776461016641769  0.26453254551126437  0.46211081081084093  1.0000
  C   C15       1.0  0.9987607655998784  0.19997401950241023  0.3497513320958092  1.0000
  C   C16       1.0  0.006777542410974391  0.049748268305511496  0.35148224504129866  1.0000
  C   C17       1.0  0.9911240632012095  0.9648291846273069  0.46768800853522374  1.0000
  C   C18       1.0  0.9684368338225706  0.02803532865290802  0.5813613973111358  1.0000
  C   C19       1.0  0.030127104882041067  0.9833664454325481  0.23103750350932217  1.0000
  N   N3        1.0  0.033010559418136465  0.05770550028478416  0.11307400102385046  1.0000
  C   C20       1.0  0.056913018566798756  0.960456852134581  0.03163358606231048  1.0000
  C   C21       1.0  0.0683028069853091  0.8298693181092336  0.10067429521723749  1.0000
  N   N4        1.0  0.05149143367590782  0.8444330546667923  0.22606403865756386  1.0000
  H   H7        1.0  0.8990377706916742  0.4438045217179405  0.7656785385540392  1.0000
  H   H8        1.0  0.9741758711752003  0.38128032829312275  0.4578900376476763  1.0000
  H   H9        1.0  0.009998610849035527  0.2684639184058766  0.261648609636314  1.0000
  H   H10       1.0  0.993824398730551  0.8483415539241417  0.46951297791407726  1.0000
  H   H11       1.0  0.9695188729443547  0.7300793082537762  0.7973062629435863  1.0000
  H   H12       1.0  0.06571630570297039  0.9836984420726017  0.9281901499366779  1.0000
  H   H13       1.0  0.05583857816808058  0.7640274339076211  0.30200665242382274  1.0000
  C   C22       1.0  0.9659791356767321  0.604410728516088  0.19906734644099688  1.0000
  C   C23       1.0  0.0395809154957103  0.6802107824114461  0.1939921075269322  1.0000
  C   C24       1.0  0.0761973539926446  0.7199030853190316  0.07421178857017141  1.0000
  C   C25       1.0  0.039772434191888584  0.6804076731889055  0.9586955625467586  1.0000
  C   C26       1.0  0.9661248832499567  0.6045618670916295  0.9617021578832374  1.0000
  C   C27       1.0  0.9295735533625104  0.5673158974004895  0.08232449267810682  1.0000
  C   C28       1.0  0.15603841679826824  0.7972606442571023  0.0701696955158091  1.0000
  O   O1        1.0  0.21638283255698962  0.6936551472584354  0.07801032841103961  1.0000
  C   C29       1.0  0.29167057872871993  0.7649377035860383  0.07433720674883393  1.0000
  H   H14       1.0  0.9382260600676909  0.5738969499407651  0.5285146731552868  1.0000
  H   H15       1.0  0.06873796877659921  0.7086629608696182  0.28306819872964173  1.0000
  H   H16       1.0  0.06906085307226206  0.7089963282166245  0.8665983636375278  1.0000
  H   H17       1.0  0.8728124404439169  0.5088447960884221  0.08547641214078583  1.0000
  H   H18       1.0  0.8276288662231486  0.4600595156628382  0.7602247638606454  1.0000
  H   H19       1.0  0.1606544008055879  0.867778635784556  0.153054511966781  1.0000
  H   H20       1.0  0.16083927664524356  0.8678057051192617  0.9779422590872601  1.0000
  H   H21       1.0  0.33843445143571715  0.6822472553708434  0.08056706671851788  1.0000
  H   H22       1.0  0.3001135344463821  0.8321313995098891  0.15871067986600873  1.0000
  H   H23       1.0  0.300308566342288  0.832196904954501  0.9812016407100494  1.0000
  Zn  Zn1       1.0  0.8786818923414628  0.60209059480358  0.5795617353168754  1.0000
  Zn  Zn2       1.0  0.053414472600576066  0.6068811149325833  0.581207073437978  1.0000
  C   C30       1.0  0.9660631881519053  0.5987872909599437  0.8175345613421265  1.0000
  C   C31       1.0  0.9660350951358163  0.6101862909917954  0.34323439702554737  1.0000
  C   C32       1.0  0.9675301719868739  0.8679146610233296  0.57581768381299  1.0000
  C   C33       1.0  0.9645680419328246  0.3410571864096361  0.5849513392265444  1.0000
  O   O2        1.0  0.032363943793028094  0.6139363074759763  0.3922425589160843  1.0000
  O   O3        1.0  0.032352318676616365  0.5986720802385004  0.769774796710349  1.0000
  O   O4        1.0  0.03353603304199226  0.815995810905223  0.5745867029595615  1.0000
  O   O5        1.0  0.031180169842750072  0.3966125854731508  0.5874305547677088  1.0000
  O   O6        1.0  0.9009161354716426  0.8123591226298124  0.5733382534188449  1.0000
  O   O7        1.0  0.8997324308466433  0.5950371248486633  0.768526281929472  1.0000
  O   O8        1.0  0.899744055434754  0.6103013015161387  0.3909924828300589  1.0000
  O   O9        1.0  0.8985602814417313  0.39297756921621557  0.5861805760125465  1.0000
