data_image0
_chemical_formula_structural       NC9NC3OH6C6OCH7C6ClH3Zn2C4O8
_chemical_formula_sum              "N2 C29 O10 H16 Cl1 Zn2"
_cell_length_a       15.78231758774541
_cell_length_b       9.273888216677433
_cell_length_c       10.302974078461048
_cell_angle_alpha    85.76054459610899
_cell_angle_beta     90.08385130592438
_cell_angle_gamma    89.05820199757645

_space_group_name_H-M_alt    "P 1"
_space_group_IT_number       1

loop_
  _space_group_symop_operation_xyz
  'x, y, z'

loop_
  _atom_site_type_symbol
  _atom_site_label
  _atom_site_symmetry_multiplicity
  _atom_site_fract_x
  _atom_site_fract_y
  _atom_site_fract_z
  _atom_site_occupancy
  N   N1        1.0  0.7886381442933198  0.5693627352247824  0.5753011819127399  1.0000
  C   C1        1.0  0.7406424541749775  0.4782355704189856  0.5990877657271714  1.0000
  C   C2        1.0  0.6810538641695577  0.365124608435466  0.6286130483401804  1.0000
  C   C3        1.0  0.7015527261683104  0.22303901265027976  0.6656221779813014  1.0000
  C   C4        1.0  0.6252274378132618  0.15417877085770756  0.6836327772598982  1.0000
  C   C5        1.0  0.5628278461996594  0.259338373288555  0.6562830521688535  1.0000
  C   C6        1.0  0.46985129738854414  0.23989597001366159  0.6614313339930208  1.0000
  C   C7        1.0  0.4154045504916984  0.3591075602443349  0.6302620156792975  1.0000
  C   C8        1.0  0.3272918967563512  0.343165255679003  0.6344906416612712  1.0000
  C   C9        1.0  0.2721282377233568  0.4658453689685358  0.6024061921800684  1.0000
  N   N2        1.0  0.22778964378160738  0.5644643521662995  0.576613147141696  1.0000
  C   C10       1.0  0.2929457469986397  0.20783393115472457  0.6699370083287355  1.0000
  C   C11       1.0  0.3464601107983108  0.08886880753580106  0.7010462405972684  1.0000
  C   C12       1.0  0.43438967999759426  0.10437315142245263  0.6969325102827977  1.0000
  O   O1        1.0  0.5985527455385463  0.3839661715438134  0.6237726462455855  1.0000
  H   H1        1.0  0.7642951545790696  0.1751226525035696  0.6780521514359414  1.0000
  H   H2        1.0  0.6171616975862749  0.040954470446057586  0.7131396012299006  1.0000
  H   H3        1.0  0.44139018272638325  0.46441932693840876  0.6026737372339721  1.0000
  H   H4        1.0  0.2249089269857682  0.19433162765305723  0.6735163129153368  1.0000
  H   H5        1.0  0.3197399253418022  0.9842770067331491  0.728446334707842  1.0000
  H   H6        1.0  0.4740307165076014  0.010144395593178802  0.7215814602081673  1.0000
  C   C13       1.0  0.010705982644722225  0.14342364079468295  0.5746382066275966  1.0000
  C   C14       1.0  0.9909184903585793  0.22690713713586552  0.4586203942586332  1.0000
  C   C15       1.0  0.9639221624721509  0.16248362109980008  0.3476743726483411  1.0000
  C   C16       1.0  0.9565566162183141  0.011584892945694314  0.35232878011905205  1.0000
  C   C17       1.0  0.9772308306548142  0.926896402001263  0.46585198381315635  1.0000
  C   C18       1.0  0.005729936786561747  0.990392278517482  0.5772873257682841  1.0000
  O   O2        1.0  0.9446482438143612  0.2521284902050509  0.23547487723241023  1.0000
  C   C19       1.0  0.9163669831017506  0.20151933375898626  0.1159171275776314  1.0000
  H   H7        1.0  0.017607409765532323  0.2200312357698087  0.8941394670875937  1.0000
  H   H8        1.0  0.9944973583457828  0.34374278736837627  0.45478301369299895  1.0000
  H   H9        1.0  0.9356413305151257  0.9583812347414735  0.2683026739921861  1.0000
  H   H10       1.0  0.9728275914223555  0.810477097928608  0.46540653603719534  1.0000
  H   H11       1.0  0.01392888820125603  0.6913701728469511  0.7915948115534414  1.0000
  H   H12       1.0  0.8555599729768518  0.14407356697314677  0.1306976016503321  1.0000
  H   H13       1.0  0.906061311656562  0.2953196977845465  0.04411052091301104  1.0000
  C   C20       1.0  0.008217976461958766  0.5669079801454528  0.1947202710595635  1.0000
  C   C21       1.0  0.9943580487270327  0.41728925229302094  0.2034414192015288  1.0000
  C   C22       1.0  0.9874811741049083  0.34305251420994287  0.09081182396025311  1.0000
  C   C23       1.0  0.9943580861472863  0.41728933331502605  0.9683335205983831  1.0000
  C   C24       1.0  0.008217974737863891  0.566907905728681  0.9572052898936927  1.0000
  C   C25       1.0  0.01508039270542594  0.640987972235463  0.07104883119926142  1.0000
  Cl  Cl1       1.0  0.9701668344764605  0.15614317885567153  0.10321015259804246  1.0000
  H   H14       1.0  0.9888456433351538  0.3577823901956445  0.2974352532241469  1.0000
  H   H15       1.0  0.9888457026699914  0.357782368957248  0.8822342872627766  1.0000
  H   H16       1.0  0.025769546962174594  0.756378426335991  0.06339449484642201  1.0000
  Zn  Zn1       1.0  0.9153677998374473  0.5679453155706895  0.575687265671794  1.0000
  Zn  Zn2       1.0  0.10106002889545507  0.5658700016726268  0.57623763936831  1.0000
  C   C26       1.0  0.008249825810900724  0.5611628743281143  0.8130612928959247  1.0000
  C   C27       1.0  0.008180019985032814  0.5726542398525798  0.33886375126971147  1.0000
  C   C28       1.0  0.006666168982852439  0.8302972267756181  0.5716131133701986  1.0000
  C   C29       1.0  0.00976362362869554  0.30351815548034444  0.5803119944040507  1.0000
  O   O3        1.0  0.07863655159219624  0.5737888747903019  0.38744846426640334  1.0000
  O   O4        1.0  0.07872940582476445  0.5584520362316345  0.7648939236752176  1.0000
  O   O5        1.0  0.07744963294904594  0.7757814401181897  0.5699228122967098  1.0000
  O   O6        1.0  0.07991626104312877  0.35645948192821275  0.582419478146985  1.0000
  O   O7        1.0  0.9365115043221197  0.7773558360248765  0.5695054266984794  1.0000
  O   O8        1.0  0.9377912670145705  0.5600281647728262  0.7644764742737356  1.0000
  O   O9        1.0  0.93769841313364  0.5753649530766061  0.3870294538248149  1.0000
  O   O10       1.0  0.9389781226417053  0.35803554989982395  0.5820005650086837  1.0000
