data_image0
_chemical_formula_structural       NC8F2C7NH8C12H10C12H10Zn2C4O8
_chemical_formula_sum              "N2 C43 F2 H28 Zn2 O8"
_cell_length_a       17.998342126830877
_cell_length_b       14.994056859933256
_cell_length_c       13.024585202197207
_cell_angle_alpha    85.82059027263038
_cell_angle_beta     93.99278699860983
_cell_angle_gamma    89.97997300460483

_space_group_name_H-M_alt    "P 1"
_space_group_IT_number       1

loop_
  _space_group_symop_operation_xyz
  'x, y, z'

loop_
  _atom_site_type_symbol
  _atom_site_label
  _atom_site_symmetry_multiplicity
  _atom_site_fract_x
  _atom_site_fract_y
  _atom_site_fract_z
  _atom_site_occupancy
  N   N1        1.0  0.6421596774987753  0.972267366258375  0.8650983152964067  1.0000
  C   C1        1.0  0.5936361374934206  0.9559990434302107  0.9170909554406608  1.0000
  C   C2        1.0  0.5332782886304703  0.935763720690526  0.981762154173765  1.0000
  C   C3        1.0  0.5023925040962414  0.8500423972327236  0.9870793058926632  1.0000
  C   C4        1.0  0.44367278370386004  0.830366010527218  0.04971274926939662  1.0000
  C   C5        1.0  0.41564049701290867  0.8960146616147315  0.10879799649072552  1.0000
  C   C6        1.0  0.4462431230665809  0.9823994496911025  0.1016114047152562  1.0000
  C   C7        1.0  0.5049605532385486  0.0019337231235811974  0.03892950136915841  1.0000
  C   C8        1.0  0.3502481875599948  0.8757900417579276  0.1734351070778213  1.0000
  F   F1        1.0  0.3521601306378252  0.786764882450903  0.21086846042160956  1.0000
  F   F2        1.0  0.3545227076013596  0.9264674801020815  0.2585587540929075  1.0000
  C   C9        1.0  0.2783303930907912  0.896014858872961  0.10879775092724663  1.0000
  C   C10       1.0  0.24695299847382526  0.9823995917060653  0.10161158359228395  1.0000
  C   C11       1.0  0.18190725627170454  0.0019338759028169048  0.03892977392168895  1.0000
  C   C12       1.0  0.1478671025549715  0.935763916032732  0.9817617422434641  1.0000
  C   C13       1.0  0.17933928463202042  0.8500429568414896  0.9870778094721816  1.0000
  C   C14       1.0  0.2443825739237283  0.8303666864548703  0.04971123914427522  1.0000
  C   C15       1.0  0.08097996432219202  0.9559991992221057  0.9170907555690266  1.0000
  N   N2        1.0  0.027207199142940713  0.9722674280161748  0.8650982299262944  1.0000
  H   H1        1.0  0.5234730923736236  0.7985204970100035  0.942489434874275  1.0000
  H   H2        1.0  0.4199824082056965  0.7639482807864175  0.05171826706856131  1.0000
  H   H3        1.0  0.4245626948410639  0.034864088015421846  0.1441990051285157  1.0000
  H   H4        1.0  0.5280412482257039  0.0687227784629183  0.03472649636844405  1.0000
  H   H5        1.0  0.2728945401279302  0.0348640552971899  0.14419974046683537  1.0000
  H   H6        1.0  0.1583637346380544  0.06872273382323008  0.034727208521152186  1.0000
  H   H7        1.0  0.1537954793594974  0.7985212959877989  0.942487073421215  1.0000
  H   H8        1.0  0.2683142059524474  0.7639493641608589  0.05171585729806538  1.0000
  C   C16       1.0  0.8347531586897184  0.7103031276471388  0.8650246522854093  1.0000
  C   C17       1.0  0.8651934034546719  0.6677312849458841  0.7848301081308227  1.0000
  C   C18       1.0  0.8651889765432271  0.5745067835580958  0.7848875552602499  1.0000
  C   C19       1.0  0.834698072830277  0.5218031224519284  0.8650676681509539  1.0000
  C   C20       1.0  0.8042428119779933  0.5644779879043189  0.9452061993098011  1.0000
  C   C21       1.0  0.8043029410565802  0.6577031279123979  0.945194601410118  1.0000
  C   C22       1.0  0.8346603645248778  0.4227264731103683  0.8651122578825605  1.0000
  C   C23       1.0  0.7723695497900304  0.37323396872670267  0.8947796535213179  1.0000
  C   C24       1.0  0.7723274400174083  0.2800132692382683  0.8947772807033945  1.0000
  C   C25       1.0  0.8346212890876585  0.2342248455137498  0.8651808226774481  1.0000
  C   C26       1.0  0.8968988310789529  0.2836109152866161  0.8355670468642369  1.0000
  C   C27       1.0  0.896916019752288  0.37684038984919854  0.8354872155905311  1.0000
  H   H9        1.0  0.8039767110337741  0.9180223066272211  0.946012790122688  1.0000
  H   H10       1.0  0.8888908055593735  0.7064444648868358  0.7217812112900852  1.0000
  H   H11       1.0  0.88818110835475  0.543685260129202  0.7213707672712725  1.0000
  H   H12       1.0  0.7812256642246687  0.5256996606741156  0.008751806079811516  1.0000
  H   H13       1.0  0.7806277944465836  0.6884907925590175  0.008223321867664944  1.0000
  H   H14       1.0  0.7231938203719359  0.40669953679681276  0.9167048437875127  1.0000
  H   H15       1.0  0.723386279983843  0.24384920925357584  0.9177276850305699  1.0000
  H   H16       1.0  0.9458220975097471  0.2502736291781575  0.8126439963411322  1.0000
  H   H17       1.0  0.9461161550377039  0.4129746913643471  0.8135321248748402  1.0000
  H   H18       1.0  0.8975366384402601  0.023260207808413903  0.8352440116672227  1.0000
  C   C28       1.0  0.819458575486023  0.9711933184869718  0.5628835275972601  1.0000
  C   C29       1.0  0.8030154567653698  0.04247847104298836  0.4884749859335684  1.0000
  C   C30       1.0  0.8284008809549309  0.04111269002806517  0.38959447482841175  1.0000
  C   C31       1.0  0.8701686644974284  0.9682226640368211  0.3631255011743222  1.0000
  C   C32       1.0  0.8873174220840218  0.8974450897014266  0.43746100801743615  1.0000
  C   C33       1.0  0.8619694209454062  0.8987360068854702  0.5363847604904899  1.0000
  C   C34       1.0  0.8981099014137147  0.9673993475050247  0.25892517932671155  1.0000
  C   C35       1.0  0.9755988503703501  0.9644909597510943  0.25124208605195264  1.0000
  C   C36       1.0  0.005464772727679089  0.9692214668857474  0.15501916172368466  1.0000
  C   C37       1.0  0.9584693544390974  0.977105426513639  0.06517293368495736  1.0000
  C   C38       1.0  0.8813623653266579  0.9791797381953584  0.07111315330583712  1.0000
  C   C39       1.0  0.8499158308419275  0.9733346332465482  0.1673218947612014  1.0000
  H   H19       1.0  0.7912910110852833  0.9015376082712665  0.8128051951375921  1.0000
  H   H20       1.0  0.7706703887172366  0.09942453183996797  0.5066747499184694  1.0000
  H   H21       1.0  0.8155961696031924  0.09695923621338931  0.33361371145131624  1.0000
  H   H22       1.0  0.9199738744132282  0.8409599690969564  0.4185800200096499  1.0000
  H   H23       1.0  0.8757345123694085  0.8429841868742258  0.5920474054743785  1.0000
  H   H24       1.0  0.0131351733435785  0.9601380016179598  0.3201876312624681  1.0000
  H   H25       1.0  0.06523020540072477  0.9674518553221281  0.15013742589058587  1.0000
  H   H26       1.0  0.9818104634983006  0.9810392574676557  0.9906071556343039  1.0000
  H   H27       1.0  0.8461795991928592  0.9837243938307138  0.9999816857730184  1.0000
  H   H28       1.0  0.6669964739643676  0.004425096220998184  0.0827966683742154  1.0000
  Zn  Zn1       1.0  0.7532763773520804  0.9722650141072844  0.865104235366712  1.0000
  Zn  Zn2       1.0  0.9160909207258324  0.9722625007819469  0.8651007455045547  1.0000
  C   C40       1.0  0.8441580171724405  0.9693760473973171  0.0530690671689339  1.0000
  C   C41       1.0  0.8252110636418233  0.9751525933985575  0.677136015011617  1.0000
  C   C42       1.0  0.8344357286561246  0.13517793728903893  0.8610501752838988  1.0000
  C   C43       1.0  0.8349332996355082  0.8093496319221879  0.8691549614471799  1.0000
  O   O1        1.0  0.8889289228914042  0.9764765166064512  0.7154788679528157  1.0000
  O   O2        1.0  0.9040126143126048  0.9680495426076733  0.014723269044907726  1.0000
  O   O3        1.0  0.8961609643813591  0.10193666935023808  0.8596666555765298  1.0000
  O   O4        1.0  0.8967805133751503  0.8425893959728767  0.870535404258862  1.0000
  O   O5        1.0  0.7725867291418769  0.10193811891816429  0.8596695766081828  1.0000
  O   O6        1.0  0.7804383760348678  0.9680520637620568  0.014726135521810792  1.0000
  O   O7        1.0  0.7653546223217963  0.9764790022908058  0.7154804970745465  1.0000
  O   O8        1.0  0.7732062166921564  0.8425918755500507  0.8705371105387025  1.0000
