data_image0
_chemical_formula_structural       NC9NC3OH6C7NC2NH8C6SCNH5Zn2C4O8
_chemical_formula_sum              "N5 C32 O9 H19 S1 Zn2"
_cell_length_a       15.78231758774541
_cell_length_b       9.273995741505848
_cell_length_c       10.302218930750287
_cell_angle_alpha    85.6945973122959
_cell_angle_beta     90.10197945546608
_cell_angle_gamma    90.21461439936415

_space_group_name_H-M_alt    "P 1"
_space_group_IT_number       1

loop_
  _space_group_symop_operation_xyz
  'x, y, z'

loop_
  _atom_site_type_symbol
  _atom_site_label
  _atom_site_symmetry_multiplicity
  _atom_site_fract_x
  _atom_site_fract_y
  _atom_site_fract_z
  _atom_site_occupancy
  N   N1        1.0  0.8069544578138347  0.5695106370759424  0.57383350352917  1.0000
  C   C1        1.0  0.7578830545800403  0.478385459356197  0.5977002456691969  1.0000
  C   C2        1.0  0.696959243194847  0.3652769637666302  0.627325024278607  1.0000
  C   C3        1.0  0.7157808356068877  0.22319448041278594  0.6644591301038016  1.0000
  C   C4        1.0  0.6386426921167715  0.1543357336546383  0.6825303041371074  1.0000
  C   C5        1.0  0.5774844804669529  0.2594930251259684  0.6550880859122348  1.0000
  C   C6        1.0  0.484278438386238  0.24005103265279226  0.6602534761855137  1.0000
  C   C7        1.0  0.43123891726192654  0.35926003272164003  0.6289792911358889  1.0000
  C   C8        1.0  0.34293808602328996  0.343318063719511  0.6332219462510396  1.0000
  C   C9        1.0  0.28922259502709485  0.4659955129642128  0.6010295781735238  1.0000
  N   N2        1.0  0.24604814108248593  0.5646123548445763  0.5751497803965149  1.0000
  C   C10       1.0  0.3069944389503799  0.20798966841090905  0.6687873650415381  1.0000
  C   C11       1.0  0.3591044872752401  0.08902712881722644  0.7000012476111983  1.0000
  C   C12       1.0  0.4472170641778145  0.10453114658726491  0.6958738734570922  1.0000
  O   O1        1.0  0.6146805563398334  0.3841181020742568  0.6224680552312016  1.0000
  H   H1        1.0  0.7779576180617207  0.17527917901008383  0.6769312456434162  1.0000
  H   H2        1.0  0.6292403826984965  0.04111391072831071  0.7121367196715221  1.0000
  H   H3        1.0  0.4584676846942497  0.46456952081340047  0.6012983686236046  1.0000
  H   H4        1.0  0.23879824193367852  0.19448764949454622  0.6723785513925764  1.0000
  H   H5        1.0  0.33114966542576424  0.9844375909632038  0.7274933524621934  1.0000
  H   H6        1.0  0.48574578563546594  0.010304436008238714  0.7206057144994085  1.0000
  C   C13       1.0  0.023971227706937697  0.14360089782056962  0.5735355875884713  1.0000
  C   C14       1.0  0.038824631715835584  0.22669039984887895  0.4561637264485116  1.0000
  C   C15       1.0  0.06126035390520033  0.1613438741545612  0.3436844581835379  1.0000
  C   C16       1.0  0.0697788434559321  0.010802505960899818  0.34536503668704777  1.0000
  C   C17       1.0  0.05314609065370379  0.9264554303115183  0.4616560093479307  1.0000
  C   C18       1.0  0.02903939245135654  0.9905108732411004  0.5754588804849976  1.0000
  C   C19       1.0  0.09458930429594618  0.9435478676548259  0.22478741013764528  1.0000
  N   N3        1.0  0.09765285094426046  0.01781729483308215  0.10681876758867204  1.0000
  C   C20       1.0  0.12305092923949607  0.9196596713294959  0.025237745178514178  1.0000
  C   C21       1.0  0.13515372671326584  0.7885990822674933  0.09419966312482653  1.0000
  N   N4        1.0  0.11729064435220232  0.803776920805884  0.21968085438551774  1.0000
  H   H7        1.0  0.9552977477248421  0.40893850903724016  0.7601899652761686  1.0000
  H   H8        1.0  0.03513721369568287  0.343576089009622  0.45196512112107134  1.0000
  H   H9        1.0  0.07320121865733209  0.22942485185218534  0.2555210742096714  1.0000
  H   H10       1.0  0.05601542467449083  0.8098610288974475  0.4634638885253277  1.0000
  H   H11       1.0  0.030189808408110457  0.6924324114933784  0.7913733703318682  1.0000
  H   H12       1.0  0.13240482898254524  0.9425936711006034  0.9217505528656109  1.0000
  H   H13       1.0  0.15595524470373756  0.6892617578178069  0.055773037536086756  1.0000
  H   H14       1.0  0.12191007493188888  0.7231723933756335  0.2955879743908145  1.0000
  C   C22       1.0  0.026426716945348698  0.5671243350043548  0.1932219958737651  1.0000
  C   C23       1.0  0.10582294529787628  0.4990443038879173  0.19708730911008843  1.0000
  C   C24       1.0  0.14529003959366182  0.4647147948606032  0.08203229751257046  1.0000
  C   C25       1.0  0.10602846436681074  0.4988634042481997  0.961933275966843  1.0000
  C   C26       1.0  0.026583886737256736  0.5669874753025516  0.9557724934754352  1.0000
  C   C27       1.0  0.9872045558592708  0.6006913075376934  0.07198583401261693  1.0000
  S   S1        1.0  0.24678871214076448  0.37836920857640594  0.08840661151629627  1.0000
  C   C28       1.0  0.20142606703531807  0.20364851617544227  0.10013867045257509  1.0000
  N   N5        1.0  0.17166143399775302  0.08911130238647025  0.107829957749777  1.0000
  H   H15       1.0  0.9962226242204804  0.5931012213687029  0.5190812543550276  1.0000
  H   H16       1.0  0.13728419120628446  0.4721552966527292  0.2891936742549257  1.0000
  H   H17       1.0  0.13763057829217748  0.4718503337220115  0.8737725668979137  1.0000
  H   H18       1.0  0.9259689595301712  0.6531775251996306  0.06815796704542443  1.0000
  H   H19       1.0  0.8768805333483666  0.695532760785913  0.7369331181091088  1.0000
  Zn  Zn1       1.0  0.9336673847081012  0.568093245440901  0.5742208354785905  1.0000
  Zn  Zn2       1.0  0.11933511745218034  0.5660179752421868  0.5747730354309  1.0000
  C   C29       1.0  0.02651792116239891  0.5612686796644308  0.8116210727530797  1.0000
  C   C30       1.0  0.02648661939829644  0.5728443378077317  0.3373729357535573  1.0000
  C   C31       1.0  0.028075972777632734  0.8304278799483522  0.5699214442394245  1.0000
  C   C32       1.0  0.0249284940740344  0.3036834057065443  0.5790726293659025  1.0000
  O   O2        1.0  0.0969666225219381  0.5739701777077464  0.3859608507294885  1.0000
  O   O3        1.0  0.09695542454552575  0.558566669914792  0.7634518885391968  1.0000
  O   O4        1.0  0.09821262137371305  0.7759161385010667  0.568277729029578  1.0000
  O   O5        1.0  0.09570936237959565  0.35662072016267393  0.5811349127233525  1.0000
  O   O6        1.0  0.9572930764214093  0.7774905012301725  0.5678589579908733  1.0000
  O   O7        1.0  0.9560358899429736  0.5601427651709229  0.7630330522065378  1.0000
  O   O8        1.0  0.9560470873532472  0.5755462229925246  0.38554045326567077  1.0000
  O   O9        1.0  0.9547898271657826  0.358196755116009  0.5807146125800255  1.0000
