data_image0
_chemical_formula_structural       NC4OC2NH2C10H10C10H10Zn2C4O8
_chemical_formula_sum              "N2 C30 O9 H22 Zn2"
_cell_length_a       11.421685574793525
_cell_length_b       15.491143632010283
_cell_length_c       15.491147000629631
_cell_angle_alpha    85.58056798590853
_cell_angle_beta     89.55561712413143
_cell_angle_gamma    89.41594580595003

_space_group_name_H-M_alt    "P 1"
_space_group_IT_number       1

loop_
  _space_group_symop_operation_xyz
  'x, y, z'

loop_
  _atom_site_type_symbol
  _atom_site_label
  _atom_site_symmetry_multiplicity
  _atom_site_fract_x
  _atom_site_fract_y
  _atom_site_fract_z
  _atom_site_occupancy
  N   N1        1.0  0.10083981971272803  0.9042140685189333  0.009737635448474837  1.0000
  C   C1        1.0  0.03931667884742195  0.9039522994868467  0.0694571229479366  1.0000
  C   C2        1.0  0.962789849719613  0.9036268708348225  0.14370432808859634  1.0000
  C   C3        1.0  0.996580648792808  0.9032529740824546  0.22888219492667217  1.0000
  C   C4        1.0  0.8936050243882372  0.9030434441795008  0.2764331943442707  1.0000
  O   O1        1.0  0.8032271488056574  0.9032723924324597  0.2242381750734665  1.0000
  C   C5        1.0  0.8420744295535858  0.9036240049509395  0.14425706959918272  1.0000
  C   C6        1.0  0.7675369995801823  0.9039504233827937  0.06979771802847734  1.0000
  N   N2        1.0  0.7075976589164463  0.9042131985289018  0.009896365013097206  1.0000
  H   H1        1.0  0.08494754255511651  0.9031445878755773  0.25359246126837653  1.0000
  H   H2        1.0  0.8869336554198053  0.9027367490480763  0.3461500518489705  1.0000
  C   C7        1.0  0.40761217634690894  0.6500156105286303  0.021196504395877173  1.0000
  C   C8        1.0  0.3926558173980353  0.5892574544507341  0.9652380199164301  1.0000
  C   C9        1.0  0.39897471517595684  0.4948142746771393  0.9897537616326983  1.0000
  C   C10       1.0  0.45804812770176967  0.4597874342939059  0.06403223072240849  1.0000
  C   C11       1.0  0.46234066116736505  0.37026523488289176  0.08398654529370242  1.0000
  C   C12       1.0  0.40947449186752904  0.313606723651818  0.02988792192504253  1.0000
  C   C13       1.0  0.3504011668942058  0.348633564033309  0.9556094528618537  1.0000
  C   C14       1.0  0.3461084583236316  0.43815576344780893  0.9356551382375176  1.0000
  C   C15       1.0  0.41579347719794024  0.21916354387648077  0.054403663667832114  1.0000
  C   C16       1.0  0.4008365055853063  0.15840531988461412  0.9984452454549411  1.0000
  H   H3        1.0  0.4090791812917  0.8672287391012435  0.039918029568795775  1.0000
  H   H4        1.0  0.4238969158694762  0.6321006369854756  0.08888404935073083  1.0000
  H   H5        1.0  0.3711389553318706  0.6093675987910074  0.8986167324137424  1.0000
  H   H6        1.0  0.5028891563463715  0.5007204822103699  0.10627073492790196  1.0000
  H   H7        1.0  0.5084383749278312  0.3450765116797778  0.1415437336606643  1.0000
  H   H8        1.0  0.3055599622693204  0.3077005807867444  0.9133709468751324  1.0000
  H   H9        1.0  0.3000109187928395  0.4633445513138509  0.8780979481954119  1.0000
  H   H10       1.0  0.43731060259321286  0.1990534027907351  0.12102488652606491  1.0000
  H   H11       1.0  0.3845512409514681  0.17632022551205595  0.9307577667931652  1.0000
  H   H12       1.0  0.39936853400126826  0.9411922429585595  0.979723977158177  1.0000
  C   C17       1.0  0.40715947717618617  0.8927279462437586  0.7573960251240293  1.0000
  C   C18       1.0  0.39442892937192686  0.9491542680086714  0.6879382184051397  1.0000
  C   C19       1.0  0.3997728251369218  0.924441491979671  0.5973054141034126  1.0000
  C   C20       1.0  0.455866882817545  0.8482110116537448  0.5739995682160384  1.0000
  C   C21       1.0  0.45936637204794445  0.8281252328034925  0.48757500249223273  1.0000
  C   C22       1.0  0.4086763398248603  0.8839794645519633  0.4223363783021705  1.0000
  C   C23       1.0  0.3525823681497817  0.9602100062828032  0.4456422872118977  1.0000
  C   C24       1.0  0.34908279203853265  0.9802957883945552  0.5320667881851651  1.0000
  C   C25       1.0  0.4140204098195289  0.8592667531858906  0.3317035723252999  1.0000
  C   C26       1.0  0.40128925069478893  0.9156930135563467  0.26224570242493095  1.0000
  H   H13       1.0  0.4078840938049415  0.8739699447353366  0.9775040170336102  1.0000
  H   H14       1.0  0.4207530010145664  0.8245358732963932  0.7499962205206363  1.0000
  H   H15       1.0  0.3755643580071053  0.01645838578332625  0.6976745524280813  1.0000
  H   H16       1.0  0.49900658433580297  0.8044807931346573  0.6216474394940099  1.0000
  H   H17       1.0  0.5031551434369186  0.7690445165809158  0.47147010911353704  1.0000
  H   H18       1.0  0.3094425790790348  0.0039402248036337646  0.39799441590740514  1.0000
  H   H19       1.0  0.3052941075304083  0.039376501355632004  0.5481717463143994  1.0000
  H   H20       1.0  0.43288524384181876  0.7919626354060069  0.32196723838192143  1.0000
  H   H21       1.0  0.3876951148642878  0.9838850218494978  0.26964550857086245  1.0000
  H   H22       1.0  0.40056367381823044  0.9344507531585288  0.042137781860380086  1.0000
  Zn  Zn1       1.0  0.2759370144418736  0.9042117251801416  0.009788511614742703  1.0000
  Zn  Zn2       1.0  0.5325005097571824  0.9042087767368546  0.009852855827458653  1.0000
  C   C27       1.0  0.40244219244486945  0.9079036337453544  0.16697264280586976  1.0000
  C   C28       1.0  0.40599811788202356  0.9005179641851461  0.8526687608298631  1.0000
  C   C29       1.0  0.40215108894727036  0.06215303001671367  0.9993203115228386  1.0000
  C   C30       1.0  0.40628914716037223  0.7462675299931535  0.02032118446136455  1.0000
  O   O2        1.0  0.5029729148051576  0.9031274699986802  0.8846677485556309  1.0000
  O   O3        1.0  0.5001931635713749  0.905291225849925  0.1350222726271656  1.0000
  O   O4        1.0  0.4999567709025153  0.02984960476220189  0.9996417883393858  1.0000
  O   O5        1.0  0.5032092205931675  0.7785690943479027  0.020048168092871698  1.0000
  O   O6        1.0  0.3052282160533995  0.029851407570836024  0.999593199322809  1.0000
  O   O7        1.0  0.3054645953890203  0.9052940665809344  0.13497359123559727  1.0000
  O   O8        1.0  0.3082443591196469  0.9031302335529691  0.8846180350361497  1.0000
  O   O9        1.0  0.30848066423601717  0.7785718546424351  0.01999851929740848  1.0000
