data_image0
_chemical_formula_structural       NC5NC3BrH3C6NCH9C7OH5Zn2C4O8
_chemical_formula_sum              "N3 C26 Br1 H17 O9 Zn2"
_cell_length_a       13.839083392302014
_cell_length_b       9.273386996610926
_cell_length_c       9.274074313596557
_cell_angle_alpha    86.02935137670892
_cell_angle_beta     90.2343589418284
_cell_angle_gamma    89.42455387291925

_space_group_name_H-M_alt    "P 1"
_space_group_IT_number       1

loop_
  _space_group_symop_operation_xyz
  'x, y, z'

loop_
  _atom_site_type_symbol
  _atom_site_label
  _atom_site_symmetry_multiplicity
  _atom_site_fract_x
  _atom_site_fract_y
  _atom_site_fract_z
  _atom_site_occupancy
  N   N1        1.0  0.8945487591953161  0.5638481567927704  0.40761112671966093  1.0000
  C   C1        1.0  0.8230007684707339  0.5002007241172772  0.41017996861698025  1.0000
  C   C2        1.0  0.7338570927241651  0.42100131027150955  0.4133763384260516  1.0000
  C   C3        1.0  0.6457562923381537  0.4972083442934278  0.41030093084143726  1.0000
  C   C4        1.0  0.558243403149474  0.42247416844343655  0.4133168398276409  1.0000
  C   C5        1.0  0.46792338457784444  0.5010328139860201  0.41014636982368374  1.0000
  N   N2        1.0  0.3953177806139733  0.5641878043543236  0.4075973634685756  1.0000
  C   C6        1.0  0.5587677066413684  0.2712214274172278  0.419420776542642  1.0000
  C   C7        1.0  0.646424327154609  0.1948931136190821  0.42250098713411427  1.0000
  C   C8        1.0  0.7341383453245486  0.2689130993028952  0.4195139200964534  1.0000
  Br  Br1       1.0  0.852327620969975  0.15881255971468877  0.42395721250277396  1.0000
  H   H1        1.0  0.6452949105117137  0.6144164155624741  0.4055706970944537  1.0000
  H   H2        1.0  0.49149359818384675  0.2123633803272027  0.42179577678118046  1.0000
  H   H3        1.0  0.6461207308669851  0.0779342681015831  0.4272207856992009  1.0000
  C   C9        1.0  0.1479111734199252  0.14037295072775313  0.4083124092876602  1.0000
  C   C10       1.0  0.16453037428784967  0.2225804758382992  0.27799706221746545  1.0000
  C   C11       1.0  0.17205152919056  0.15680326303800318  0.1476739091824697  1.0000
  C   C12       1.0  0.16306363182319927  0.006463711942495505  0.14433404519296444  1.0000
  C   C13       1.0  0.14814605716142082  0.9232899823229456  0.2741966608562241  1.0000
  C   C14       1.0  0.14196470190403776  0.9876519912567521  0.4069086182212086  1.0000
  N   N3        1.0  0.16976076955602126  0.9356231006617381  0.011320268615927494  1.0000
  C   C15       1.0  0.18548296484078783  0.012149504194678421  0.8706751752802115  1.0000
  H   H4        1.0  0.16828292545220358  0.40485447135688907  0.644932503973582  1.0000
  H   H5        1.0  0.16945413991152614  0.33921234929260957  0.2762287122286795  1.0000
  H   H6        1.0  0.18397632199211378  0.22445236122673415  0.049774574775493165  1.0000
  H   H7        1.0  0.14357912242957882  0.8068634943009527  0.271923136727421  1.0000
  H   H8        1.0  0.17847771145469182  0.8597610403987235  0.757943427006398  1.0000
  H   H9        1.0  0.16293730741993784  0.8232806912168259  0.01430912471033774  1.0000
  H   H10       1.0  0.12551418089376631  0.09043655526795999  0.8456353907716347  1.0000
  H   H11       1.0  0.2554226607946355  0.06975096843092209  0.8709058271313248  1.0000
  H   H12       1.0  0.18769148065268637  0.9338767562661572  0.7853513993016428  1.0000
  C   C16       1.0  0.1438101451113802  0.5598566647542687  0.9843762382933301  1.0000
  C   C17       1.0  0.05926065296913108  0.6023907480176824  0.05419683399081653  1.0000
  C   C18       1.0  0.9793880372569825  0.6565220632024362  0.9749270049322942  1.0000
  C   C19       1.0  0.9821953259105021  0.6695592874282849  0.8236253261942044  1.0000
  C   C20       1.0  0.06545237791546232  0.6252826087579884  0.7526677661080017  1.0000
  C   C21       1.0  0.14606571756308706  0.5681682504658513  0.8308448122821734  1.0000
  C   C22       1.0  0.8986693601274964  0.7276554126194705  0.7381405478650565  1.0000
  O   O1        1.0  0.8226672225449402  0.7677998344568167  0.7987823028604115  1.0000
  H   H13       1.0  0.38016494892285313  0.5232615648534209  0.09121923183126945  1.0000
  H   H14       1.0  0.9157559896915548  0.6895045461115659  0.032275677941225864  1.0000
  H   H15       1.0  0.06652298807755952  0.6322746476814303  0.6354994888641379  1.0000
  H   H16       1.0  0.3049774522897821  0.5382914673731372  0.5534243152101634  1.0000
  H   H17       1.0  0.9020391103601524  0.736414456265526  0.6212564277757341  1.0000
  Zn  Zn1       1.0  0.03905993386416484  0.5639423856016754  0.40761549072683945  1.0000
  Zn  Zn2       1.0  0.25080671259241005  0.5640818671269279  0.40760484694472976  1.0000
  C   C23       1.0  0.14567757090903213  0.560850016993901  0.6708536068437301  1.0000
  C   C24       1.0  0.14419137541756988  0.5671760589134927  0.14436686915496133  1.0000
  C   C25       1.0  0.14306844983206332  0.827441833379699  0.40143065758161395  1.0000
  C   C26       1.0  0.1468004366094988  0.30058250996669167  0.4137898981318897  1.0000
  O   O2        1.0  0.22467616296245985  0.5696791531588695  0.19805715757268505  1.0000
  O   O3        1.0  0.2259036954645839  0.5584516935965957  0.6171548269593232  1.0000
  O   O4        1.0  0.22379571794341624  0.7737279708434821  0.399593886787188  1.0000
  O   O5        1.0  0.22678406786840521  0.35440288512336315  0.41561798966723495  1.0000
  O   O6        1.0  0.06308250632935476  0.7736213675591379  0.39960234800038213  1.0000
  O   O7        1.0  0.06519047147674772  0.5583468228271524  0.6171632084537539  1.0000
  O   O8        1.0  0.0639629347742694  0.5695742151019734  0.19806380634461176  1.0000
  O   O9        1.0  0.06607084003662232  0.3542979378089839  0.41562474651279646  1.0000
