data_image0
_chemical_formula_structural       NC9NC3SH6C8H6C7ONH7Zn2C4O8
_chemical_formula_sum              "N3 C31 S1 H19 O9 Zn2"
_cell_length_a       16.77567553997237
_cell_length_b       9.27514070457351
_cell_length_c       10.297855452804892
_cell_angle_alpha    85.67857769171053
_cell_angle_beta     90.3897855956152
_cell_angle_gamma    91.48491386358626

_space_group_name_H-M_alt    "P 1"
_space_group_IT_number       1

loop_
  _space_group_symop_operation_xyz
  'x, y, z'

loop_
  _atom_site_type_symbol
  _atom_site_label
  _atom_site_symmetry_multiplicity
  _atom_site_fract_x
  _atom_site_fract_y
  _atom_site_fract_z
  _atom_site_occupancy
  N   N1        1.0  0.7599648658737231  0.5994635890104234  0.5778145127190228  1.0000
  C   C1        1.0  0.7055274350066909  0.654229849932521  0.619550893297095  1.0000
  C   C2        1.0  0.6379697633724817  0.7221911589463987  0.671342549658628  1.0000
  C   C3        1.0  0.6406595713912346  0.8199866030155101  0.7666452161044293  1.0000
  C   C4        1.0  0.5652972607288607  0.8682543751994536  0.7982764457819507  1.0000
  C   C5        1.0  0.5029539278727847  0.8082573396891186  0.7275070433693108  1.0000
  C   C6        1.0  0.4166285943137432  0.8371991414901543  0.7384280705611228  1.0000
  C   C7        1.0  0.3593086033962322  0.7488334688385563  0.6799225263881816  1.0000
  C   C8        1.0  0.2778202295415493  0.7755429599886974  0.6897815000832476  1.0000
  C   C9        1.0  0.2198158577298077  0.6842142184083868  0.6298734043407244  1.0000
  N   N2        1.0  0.17319744072099447  0.6107989978024204  0.5817161458441318  1.0000
  C   C10       1.0  0.2528240276211409  0.8909663596152892  0.7579856780180585  1.0000
  C   C11       1.0  0.30905340884721555  0.979508522815292  0.8160299365633166  1.0000
  C   C12       1.0  0.39038642277440394  0.9532023351699028  0.8064665632428408  1.0000
  S   S1        1.0  0.542894865531854  0.694918453435049  0.6261106297173057  1.0000
  H   H1        1.0  0.6952625377056562  0.8553549942874932  0.8125061155799735  1.0000
  H   H2        1.0  0.5574600228472875  0.9436366924870001  0.8719519043903152  1.0000
  H   H3        1.0  0.3775912853233702  0.6585667752598701  0.6272517573987972  1.0000
  H   H4        1.0  0.1899633006935979  0.9125732155614161  0.7661259258608465  1.0000
  H   H5        1.0  0.2895862004807768  0.0690962016197858  0.8683815733349376  1.0000
  H   H6        1.0  0.4322357037171415  0.02497308370952212  0.8514028395139752  1.0000
  C   C13       1.0  0.9641628541255585  0.18162452431170606  0.5788341265271753  1.0000
  C   C14       1.0  0.9755587724745034  0.26541766583601256  0.4604546552212705  1.0000
  C   C15       1.0  0.9939079065078888  0.20064353847565022  0.3467962697980429  1.0000
  C   C16       1.0  0.001300030101214711  0.05091559110835877  0.34933538929797103  1.0000
  C   C17       1.0  0.9888830858534381  0.9655142972929598  0.4655764159415665  1.0000
  C   C18       1.0  0.9690069981632009  0.028627197180898904  0.5807078764834208  1.0000
  C   C19       1.0  0.020737326940793555  0.9844216015153628  0.23205658790088088  1.0000
  C   C20       1.0  0.037011869711604854  0.9287342290523941  0.1338690927255517  1.0000
  H   H7        1.0  0.9771776011204074  0.25838271380020084  0.8981173783056574  1.0000
  H   H8        1.0  0.972130456148847  0.38214979494230716  0.4564437589735024  1.0000
  H   H9        1.0  0.0031112047429495675  0.2676662195762187  0.2570875336432621  1.0000
  H   H10       1.0  0.9929026126041562  0.849017378215884  0.46545391046233825  1.0000
  H   H11       1.0  0.9747093628525512  0.7301871991943315  0.7957990627701713  1.0000
  H   H12       1.0  0.051297425374692285  0.8798507141723598  0.047681090911202414  1.0000
  C   C21       1.0  0.9666170348354363  0.6052700816079406  0.19832958686282295  1.0000
  C   C22       1.0  0.8852556012871753  0.6378009121069981  0.19424730232718845  1.0000
  C   C23       1.0  0.8438061529501062  0.6530537125016178  0.0751745634601133  1.0000
  C   C24       1.0  0.885156794238519  0.6374738287505484  0.959012756682506  1.0000
  C   C25       1.0  0.9665528278040552  0.604981595065186  0.9612123670336409  1.0000
  C   C26       1.0  0.006700028458093144  0.588758376184747  0.08132549564823344  1.0000
  C   C27       1.0  0.7579340958402714  0.6877568721600513  0.07343980441963938  1.0000
  O   O1        1.0  0.7287800244262378  0.7484853556501101  0.1671068702846652  1.0000
  N   N3        1.0  0.706740555538755  0.6522555755445705  0.9682588094841614  1.0000
  H   H13       1.0  0.1204558140399037  0.544305439686642  0.41327872803611565  1.0000
  H   H14       1.0  0.853804293372961  0.6500846628541301  0.28413642622534674  1.0000
  H   H15       1.0  0.8546229381938277  0.6532631878162016  0.8663691357082772  1.0000
  H   H16       1.0  0.06940556738688897  0.563682897797823  0.08371833808669636  1.0000
  H   H17       1.0  0.12070492038550196  0.5458502049110192  0.757943048535424  1.0000
  H   H18       1.0  0.6473948045181243  0.6836569174350169  0.9666833718213023  1.0000
  H   H19       1.0  0.7253152531579478  0.5869815029066026  0.8966045380807016  1.0000
  Zn  Zn1       1.0  0.8792148408802527  0.602730889831254  0.5789479402424962  1.0000
  Zn  Zn2       1.0  0.05394739256590842  0.6075199280125124  0.5805933594364244  1.0000
  C   C28       1.0  0.9665303332853586  0.5992907866794626  0.8169984730047719  1.0000
  C   C29       1.0  0.9666338186311484  0.6109619030851123  0.3425429761581857  1.0000
  C   C30       1.0  0.9680876991399534  0.8685275061448022  0.5751774774274341  1.0000
  C   C31       1.0  0.9650763832370751  0.3417234492569152  0.5843640365928069  1.0000
  O   O2        1.0  0.032949508180958986  0.6146832536429845  0.3915667211017495  1.0000
  O   O3        1.0  0.03283260123807463  0.5992031174583827  0.7692231868331167  1.0000
  O   O4        1.0  0.034089299855813326  0.8166151483793935  0.5739510168803262  1.0000
  O   O5        1.0  0.03169275000603533  0.397271231441334  0.5868387931227166  1.0000
  O   O6        1.0  0.9014694238124912  0.8129795847697413  0.5727025059878741  1.0000
  O   O7        1.0  0.9002127351065956  0.5955692865788957  0.7679746105150512  1.0000
  O   O8        1.0  0.9003296419465056  0.611049373099064  0.39031658297555905  1.0000
  O   O9        1.0  0.8990728837011319  0.3936373405453617  0.5855887523600201  1.0000
