data_image0
_chemical_formula_structural       NC5NC3F3CH3C6NH7C7NH4Zn2C4O8
_chemical_formula_sum              "N4 C26 F3 H14 Zn2 O8"
_cell_length_a       13.85151926108384
_cell_length_b       9.274771166103582
_cell_length_c       9.275157849593905
_cell_angle_alpha    86.00874675488272
_cell_angle_beta     89.74088631582597
_cell_angle_gamma    90.59705350001695

_space_group_name_H-M_alt    "P 1"
_space_group_IT_number       1

loop_
  _space_group_symop_operation_xyz
  'x, y, z'

loop_
  _atom_site_type_symbol
  _atom_site_label
  _atom_site_symmetry_multiplicity
  _atom_site_fract_x
  _atom_site_fract_y
  _atom_site_fract_z
  _atom_site_occupancy
  N   N1        1.0  0.9248122227054894  0.5633171365476713  0.4075131704436743  1.0000
  C   C1        1.0  0.8522343861142484  0.5548368800338479  0.46997623445791414  1.0000
  C   C2        1.0  0.7619418332916749  0.5442862815509021  0.5476892217808598  1.0000
  C   C3        1.0  0.6747037373529511  0.5527823002925485  0.47217202877774916  1.0000
  C   C4        1.0  0.5868898437553608  0.5442862682092038  0.54768920175288  1.0000
  C   C5        1.0  0.4972151338293186  0.5548368970930682  0.46997632846547477  1.0000
  N   N2        1.0  0.4251340365154511  0.5633170996662815  0.4075132759318172  1.0000
  C   C6        1.0  0.5862972921592793  0.5262977235420432  0.6989013819121082  1.0000
  C   C7        1.0  0.6735184476914617  0.5146233595444196  0.7756861094587566  1.0000
  C   C8        1.0  0.6729271368580088  0.5006129478067887  0.9386830564506861  1.0000
  F   F1        1.0  0.7531862679441618  0.42627890739256435  0.9904050276418942  1.0000
  F   F2        1.0  0.5913174527758032  0.4262788777427837  0.9904051269625463  1.0000
  F   F3        1.0  0.6737226085626957  0.6369549167640755  0.9901374867038634  1.0000
  C   C9        1.0  0.7613676182768496  0.5262976284567829  0.6989014016968549  1.0000
  H   H1        1.0  0.6751565463781178  0.5668699048132981  0.3550979028356527  1.0000
  H   H2        1.0  0.5179672275573385  0.5216738552671456  0.7565443338408953  1.0000
  H   H3        1.0  0.8292839806330102  0.5216737739551898  0.7565442929611115  1.0000
  C   C10       1.0  0.17201149748947708  0.13972814949693732  0.40829869585121625  1.0000
  C   C11       1.0  0.15017759969704977  0.22179525597015437  0.2794264484001734  1.0000
  C   C12       1.0  0.1373598143167374  0.15549634751114016  0.14973656340606878  1.0000
  C   C13       1.0  0.14642931913886104  0.005743809164215014  0.14797956992586592  1.0000
  C   C14       1.0  0.16648324458129274  0.9223402180457261  0.27508148932569165  1.0000
  C   C15       1.0  0.1779438880644741  0.9868951727036976  0.4067402140870924  1.0000
  N   N3        1.0  0.11612325232228438  0.24064930555702466  0.019447935372980844  1.0000
  H   H4        1.0  0.27972706975484174  0.2224271518017104  0.723688739062101  1.0000
  H   H5        1.0  0.14531150786241723  0.338382630625921  0.27887287853395204  1.0000
  H   H6        1.0  0.13702425200631096  0.9532952047748718  0.04819628791847851  1.0000
  H   H7        1.0  0.17075003802363953  0.806136437792982  0.2709542319671596  1.0000
  H   H8        1.0  0.24657539665424077  0.6918962431601705  0.6213171123703354  1.0000
  H   H9        1.0  0.10947181633660244  0.3527227558804862  0.01940112781148384  1.0000
  H   H10       1.0  0.10680205622990813  0.19224074285848158  0.9220346250220435  1.0000
  C   C16       1.0  0.17623014709808335  0.5592343378440963  0.9843291706259266  1.0000
  C   C17       1.0  0.2597700514295469  0.6062583251649878  0.05393870335993478  1.0000
  C   C18       1.0  0.3384370877624262  0.6646248717927652  0.9739531715516647  1.0000
  C   C19       1.0  0.33448303496301035  0.6768953385563546  0.8232716503088531  1.0000
  C   C20       1.0  0.2529197877423228  0.628703292666998  0.7523227247915187  1.0000
  C   C21       1.0  0.17372525045570664  0.5673889090195638  0.8307097391325882  1.0000
  C   C22       1.0  0.42293727375124335  0.7136576732718125  0.04686660096648576  1.0000
  N   N4        1.0  0.49085378212253483  0.7530668243666334  0.10547670706611889  1.0000
  H   H11       1.0  0.9409942021347647  0.5105989971901239  0.09225622613012519  1.0000
  H   H12       1.0  0.3949187309314057  0.722522491032829  0.760364921494757  1.0000
  H   H13       1.0  0.25275932133847717  0.6362869486948939  0.6352443335441422  1.0000
  H   H14       1.0  0.0163115108506291  0.528587008712706  0.553374602164749  1.0000
  Zn  Zn1       1.0  0.0691942392536633  0.5633133551095661  0.4075215143754678  1.0000
  Zn  Zn2       1.0  0.28075188534738965  0.5633092288261163  0.4075167037109455  1.0000
  C   C23       1.0  0.17415631289924455  0.5601011107072984  0.670736235121612  1.0000
  C   C24       1.0  0.17579213423103324  0.5665232945719674  0.14430212100858042  1.0000
  C   C25       1.0  0.17683455494075379  0.8267072122397974  0.40129208853167664  1.0000
  C   C26       1.0  0.17311380763651263  0.29991546074248027  0.41374634761980444  1.0000
  O   O1        1.0  0.25593011319494674  0.5689616761548543  0.19798869048286938  1.0000
  O   O2        1.0  0.25458568581738295  0.5576585051894547  0.6170456016237469  1.0000
  O   O3        1.0  0.2567473134215543  0.7729463183296312  0.39946754415570895  1.0000
  O   O4        1.0  0.25376841379253  0.35367387229374336  0.41556663988067943  1.0000
  O   O5        1.0  0.09617763861431476  0.7729487116448446  0.3994715781997922  1.0000
  O   O6        1.0  0.09401602336894688  0.5576626308045611  0.6170495556406008  1.0000
  O   O7        1.0  0.0953604555865535  0.5689657348105526  0.19799091196651175  1.0000
  O   O8        1.0  0.09319875578817398  0.3536779216732815  0.41556896942860866  1.0000
