data_image0
_chemical_formula_structural       NC5OC5NC4H8C9H8C6H6Zn2C4O8
_chemical_formula_sum              "N2 C33 O9 H22 Zn2"
_cell_length_a       19.189071930511275
_cell_length_b       9.275152443626249
_cell_length_c       10.681121600428288
_cell_angle_alpha    85.36323627709002
_cell_angle_beta     89.97791331363976
_cell_angle_gamma    90.56463589314393

_space_group_name_H-M_alt    "P 1"
_space_group_IT_number       1

loop_
  _space_group_symop_operation_xyz
  'x, y, z'

loop_
  _atom_site_type_symbol
  _atom_site_label
  _atom_site_symmetry_multiplicity
  _atom_site_fract_x
  _atom_site_fract_y
  _atom_site_fract_z
  _atom_site_occupancy
  N   N1        1.0  0.6638553978901864  0.5786211847571443  0.6134897925494629  1.0000
  C   C1        1.0  0.6096463521392349  0.6298500637154782  0.5956979729330139  1.0000
  C   C2        1.0  0.5422172802824554  0.6935702524091927  0.5735676254935322  1.0000
  C   C3        1.0  0.5330425278480451  0.8012352229722512  0.4754497383316636  1.0000
  C   C4        1.0  0.4675428537605821  0.8632123741641744  0.45407381659157875  1.0000
  C   C5        1.0  0.4105586019809716  0.8174095449067039  0.5295092502390142  1.0000
  O   O1        1.0  0.3459074680878608  0.8834207341537332  0.5059372210021211  1.0000
  C   C6        1.0  0.2806165470477102  0.8171989860878182  0.5289658240564359  1.0000
  C   C7        1.0  0.2242710072366953  0.9033864396400169  0.5578863211296783  1.0000
  C   C8        1.0  0.158173116335757  0.841726395926288  0.5800815754865172  1.0000
  C   C9        1.0  0.14775804233819467  0.6930765671461661  0.572292263406577  1.0000
  C   C10       1.0  0.07971329399892052  0.6295780564521434  0.5949951938268849  1.0000
  N   N2        1.0  0.0250093174594607  0.5785274624720325  0.6132477647784069  1.0000
  C   C11       1.0  0.20362868799393596  0.6065466746914596  0.54152388048304  1.0000
  C   C12       1.0  0.2697179308641217  0.6682505300003563  0.5193705717858683  1.0000
  C   C13       1.0  0.42022037062521217  0.7107472384368048  0.6291847146067044  1.0000
  C   C14       1.0  0.4857111094601021  0.6487655278703335  0.6506198360896973  1.0000
  H   H1        1.0  0.5764658450152937  0.8373505503677483  0.41566052153200106  1.0000
  H   H2        1.0  0.4609111922235278  0.9465662791161393  0.37815671865231454  1.0000
  H   H3        1.0  0.2318627340440493  0.01843961768278213  0.563882466411469  1.0000
  H   H4        1.0  0.115254315473461  0.9098948722559596  0.6031201009687301  1.0000
  H   H5        1.0  0.19603126667688395  0.49166362566916244  0.534008614407492  1.0000
  H   H6        1.0  0.3119287513908033  0.6003138867922553  0.4930395371887373  1.0000
  H   H7        1.0  0.37751770770975357  0.6770505501954194  0.6913322955145924  1.0000
  H   H8        1.0  0.49235494971481036  0.5665755824646646  0.7275859442213191  1.0000
  C   C15       1.0  0.8423799512900206  0.1549425824159394  0.6146486659472599  1.0000
  C   C16       1.0  0.8172406908765627  0.2376884949311191  0.5082750313153286  1.0000
  C   C17       1.0  0.7985792058485125  0.17225198116185192  0.39990516007511134  1.0000
  C   C18       1.0  0.8047639609365994  0.02290843734850468  0.39576318074925715  1.0000
  C   C19       1.0  0.8285404907094484  0.938474731422065  0.5012385912603141  1.0000
  C   C20       1.0  0.8464914057657886  0.0021950343743093468  0.6120997035456095  1.0000
  C   C21       1.0  0.785883565771963  0.9557638169377054  0.2835390654624972  1.0000
  C   C22       1.0  0.7700756467294668  0.8995125556647384  0.18956896343051174  1.0000
  C   C23       1.0  0.7508958616404522  0.8312495999200276  0.07555272487646891  1.0000
  H   H9        1.0  0.942515053924903  0.23656807534284366  0.8646838827822521  1.0000
  H   H10       1.0  0.8135697628947955  0.3542069331074409  0.5078835720502761  1.0000
  H   H11       1.0  0.7799472173995453  0.23849657228710952  0.3188112442487574  1.0000
  H   H12       1.0  0.8314745729509361  0.8221639401165419  0.49774312357271594  1.0000
  H   H13       1.0  0.911675405387231  0.7068787398691367  0.783117612159729  1.0000
  H   H14       1.0  0.7636354989138102  0.714524467100329  0.08724352337838082  1.0000
  H   H15       1.0  0.6941763025925968  0.8438468767056119  0.05844661135875939  1.0000
  H   H16       1.0  0.7803254571030124  0.8835904929471775  0.9944723268016467  1.0000
  C   C24       1.0  0.8444356910153732  0.5785687718056522  0.245628972660952  1.0000
  C   C25       1.0  0.7941669688986317  0.49834951926667675  0.18448128512524242  1.0000
  C   C26       1.0  0.7941669258381913  0.4983496117788291  0.05359914492322227  1.0000
  C   C27       1.0  0.8444356365750435  0.5785688425360209  0.9811194081612631  1.0000
  C   C28       1.0  0.8946628670451934  0.6587216172952604  0.04226674296632459  1.0000
  C   C29       1.0  0.8946628580206918  0.6587215949280252  0.1731590417026434  1.0000
  H   H17       1.0  0.8952706982173961  0.6596924780205444  0.5386088169848295  1.0000
  H   H18       1.0  0.7547639713663223  0.43546987779434426  0.23773352151731086  1.0000
  H   H19       1.0  0.7547639571416825  0.43546994570381714  0.009229492097239996  1.0000
  H   H20       1.0  0.9340710104732324  0.7216095446975035  0.9890588135886782  1.0000
  H   H21       1.0  0.9340709751165795  0.7216094941353506  0.21748318124875565  1.0000
  H   H22       1.0  0.8952709132752823  0.6596919753558306  0.6766797926377164  1.0000
  Zn  Zn1       1.0  0.7680766078278074  0.5785902900542514  0.613427186473237  1.0000
  Zn  Zn2       1.0  0.9207880678463946  0.5785465999888113  0.6133206452780822  1.0000
  C   C30       1.0  0.8444062220765247  0.5728217840318128  0.842113273913009  1.0000
  C   C31       1.0  0.8444601300349694  0.584316925743571  0.38463467411179586  1.0000
  C   C32       1.0  0.8457106620533668  0.842046258513949  0.6075912411760835  1.0000
  C   C33       1.0  0.8431556295376388  0.31509071806293726  0.619156778864602  1.0000
  O   O2        1.0  0.9024215046668751  0.5862231849510526  0.43124584445727004  1.0000
  O   O3        1.0  0.9023493068149373  0.5708812767814064  0.7954208840486159  1.0000
  O   O4        1.0  0.9034018773561785  0.788283444957492  0.6060426793636045  1.0000
  O   O5        1.0  0.9013688820656398  0.3688210271096242  0.6206239552514492  1.0000
  O   O6        1.0  0.7874957414956434  0.7883158629499183  0.6061238765296357  1.0000
  O   O7        1.0  0.7864431793619717  0.5709154279888107  0.7955020092285319  1.0000
  O   O8        1.0  0.7865153770163706  0.5862572858871888  0.4313254641658087  1.0000
  O   O9        1.0  0.7854627543622102  0.36885511772758295  0.6207036688805863  1.0000
