data_image0
_chemical_formula_structural       NC9NC3SH6C7OCH9C9H10Zn2C4O8
_chemical_formula_sum              "N2 C33 S1 H25 O9 Zn2"
_cell_length_a       16.77567553997237
_cell_length_b       10.30083208314754
_cell_length_c       9.272679976505533
_cell_angle_alpha    86.00090220550724
_cell_angle_beta     90.7858477527611
_cell_angle_gamma    90.88775763152196

_space_group_name_H-M_alt    "P 1"
_space_group_IT_number       1

loop_
  _space_group_symop_operation_xyz
  'x, y, z'

loop_
  _atom_site_type_symbol
  _atom_site_label
  _atom_site_symmetry_multiplicity
  _atom_site_fract_x
  _atom_site_fract_y
  _atom_site_fract_z
  _atom_site_occupancy
  N   N1        1.0  0.7445731746703542  0.4280965659567873  0.41698026700459434  1.0000
  C   C1        1.0  0.6899993180022468  0.4777624195245247  0.46315197856626716  1.0000
  C   C2        1.0  0.6222723491000437  0.5393944565472131  0.5204475398824442  1.0000
  C   C3        1.0  0.6248082714811105  0.6282584249171361  0.6259543199678466  1.0000
  C   C4        1.0  0.5493034675340601  0.6719872788282559  0.6609280833802322  1.0000
  C   C5        1.0  0.4870014100147291  0.6173652883741042  0.5825460327178895  1.0000
  C   C6        1.0  0.4005558871005164  0.6435172528483746  0.5945867502340472  1.0000
  C   C7        1.0  0.3434941854675744  0.5634560875248167  0.5298962616025602  1.0000
  C   C8        1.0  0.2618939436527435  0.5875890602883451  0.5407644080683269  1.0000
  C   C9        1.0  0.2041589375424019  0.5048480368572743  0.4745254601757074  1.0000
  N   N2        1.0  0.15775705310354357  0.43833611325566424  0.4212791329671315  1.0000
  C   C10       1.0  0.23652487824663737  0.6920953908185673  0.6161441005862267  1.0000
  C   C11       1.0  0.29249295725230817  0.7723115551534379  0.6803220949204005  1.0000
  C   C12       1.0  0.3739367837383661  0.7485442263602279  0.6697809191752992  1.0000
  S   S1        1.0  0.5271597950373057  0.5144542449918299  0.4703190425855177  1.0000
  H   H1        1.0  0.6794047965514258  0.6604933585731112  0.6767582929513054  1.0000
  H   H2        1.0  0.5413485390559688  0.7404868904060662  0.7424926338125355  1.0000
  H   H3        1.0  0.3620713507888121  0.4817327404945162  0.47168735625471886  1.0000
  H   H4        1.0  0.1735743664305394  0.7116193494878084  0.6251188400417522  1.0000
  H   H5        1.0  0.2727338135838411  0.8534208071067816  0.7381786821214871  1.0000
  H   H6        1.0  0.41556512953512525  0.8135481330691139  0.7194567441301221  1.0000
  C   C13       1.0  0.9511917634819419  0.05188136818911015  0.4192812755103077  1.0000
  C   C14       1.0  0.9284398443579229  0.05967020326740325  0.2726554547670863  1.0000
  C   C15       1.0  0.9160547127685951  0.9464250807529349  0.19924917346879822  1.0000
  C   C16       1.0  0.9283808372562738  0.8244070420088285  0.27227392697145514  1.0000
  C   C17       1.0  0.9511461673709483  0.8145416213691625  0.41899073782518936  1.0000
  C   C18       1.0  0.9622314136435249  0.9288027498398809  0.4917142273241227  1.0000
  C   C19       1.0  0.8939924825543635  0.956004941828079  0.04132545155686396  1.0000
  O   O1        1.0  0.9644899798808785  0.9630695038600128  0.9596428654091751  1.0000
  C   C20       1.0  0.9445805847175522  0.9721278634352454  0.8111121504279253  1.0000
  H   H7        1.0  0.9202742781183292  0.15373475634494715  0.2149364808600367  1.0000
  H   H8        1.0  0.9201740381053002  0.7373212616667504  0.21429302672089734  1.0000
  H   H9        1.0  0.9797854357980448  0.9220329443949631  0.6047942450427837  1.0000
  H   H10       1.0  0.9949639970685475  0.588730129367254  0.6953303236882933  1.0000
  H   H11       1.0  0.8571937929519423  0.04418926587418339  0.016841310193864034  1.0000
  H   H12       1.0  0.8572245394786615  0.8690981623274415  0.01651105578656886  1.0000
  H   H13       1.0  0.0005041905620255551  0.9775922426647117  0.7483705852594484  1.0000
  H   H14       1.0  0.9105067076016885  0.06197336236687146  0.7806932865562612  1.0000
  H   H15       1.0  0.9105191983989114  0.884489064159104  0.7803361614063813  1.0000
  C   C21       1.0  0.9495527150528681  0.4301050488001426  0.9957576718404729  1.0000
  C   C22       1.0  0.0037375449196550554  0.35112186036835524  0.07661819931356972  1.0000
  C   C23       1.0  0.06184782686766477  0.2827589422153385  0.008648334244612645  1.0000
  C   C24       1.0  0.06773829791998431  0.2911323256638628  0.8578442405596749  1.0000
  C   C25       1.0  0.012596613117169314  0.36832939547375126  0.7755901513089345  1.0000
  C   C26       1.0  0.9527851784061494  0.4363179615715276  0.8425143656737157  1.0000
  C   C27       1.0  0.133283677987019  0.2145318563182524  0.7924077040671591  1.0000
  C   C28       1.0  0.11430363691045176  0.15463332241512842  0.6501329633404374  1.0000
  C   C29       1.0  0.1703727484084392  0.2722971182121332  0.6528536306890955  1.0000
  H   H16       1.0  0.829505770120363  0.5149290652587168  0.2674261633062287  1.0000
  H   H17       1.0  0.0024758250323013726  0.3445402631181471  0.19368216525459836  1.0000
  H   H18       1.0  0.10312375699209819  0.22377000924897808  0.07473300905357183  1.0000
  H   H19       1.0  0.01437964294361605  0.3739873251213284  0.6588276638279407  1.0000
  H   H20       1.0  0.771778194119742  0.5539964305395368  0.7258819273581252  1.0000
  H   H21       1.0  0.174955468312759  0.1571482170430146  0.8650497611483571  1.0000
  H   H22       1.0  0.055083552132669134  0.17532573580721827  0.599826788248544  1.0000
  H   H23       1.0  0.14527594010616768  0.06191505627897876  0.6361967663394394  1.0000
  H   H24       1.0  0.14524990383645942  0.36440530953959344  0.6040838371222583  1.0000
  H   H25       1.0  0.2341243053577935  0.2483399098511201  0.640503815708489  1.0000
  Zn  Zn1       1.0  0.8638091516214733  0.4310480722339381  0.418229162747362  1.0000
  Zn  Zn2       1.0  0.038521117019687974  0.43537410043852615  0.4200420811828731  1.0000
  C   C30       1.0  0.9521727124980557  0.42997030824730276  0.6824611296016434  1.0000
  C   C31       1.0  0.9501594644345237  0.436453551177906  0.1558102750087862  1.0000
  C   C32       1.0  0.9511287288459489  0.6703403444193231  0.4133003518847851  1.0000
  C   C33       1.0  0.9512033888564093  0.19608195392939146  0.4249711295669871  1.0000
  O   O2        1.0  0.016665375758186718  0.440220206489198  0.21021338598722417  1.0000
  O   O3        1.0  0.018269138826185527  0.4294860255649644  0.6294335671141482  1.0000
  O   O4        1.0  0.017425220760580288  0.6235878585364547  0.4120843249615913  1.0000
  O   O5        1.0  0.017509233793204574  0.24611838053775872  0.4275625194167141  1.0000
  O   O6        1.0  0.8848209752273086  0.6203037906598022  0.4107087238872771  1.0000
  O   O7        1.0  0.885664892902487  0.42620351728990213  0.6280578885722472  1.0000
  O   O8        1.0  0.884061123273021  0.43693764024507914  0.20883597406750876  1.0000
  O   O9        1.0  0.884904981717978  0.24283580579868505  0.4261852155938213  1.0000
