data_image0
_chemical_formula_structural       NC5NC3F3CH3C6ClH5C7NH4Zn2C4O8
_chemical_formula_sum              "N3 C26 F3 H12 Cl1 Zn2 O8"
_cell_length_a       13.85151926108384
_cell_length_b       10.30297070629231
_cell_length_c       9.275157849593905
_cell_angle_alpha    86.11098826397364
_cell_angle_beta     89.74088631582597
_cell_angle_gamma    89.9983157295073

_space_group_name_H-M_alt    "P 1"
_space_group_IT_number       1

loop_
  _space_group_symop_operation_xyz
  'x, y, z'

loop_
  _atom_site_type_symbol
  _atom_site_label
  _atom_site_symmetry_multiplicity
  _atom_site_fract_x
  _atom_site_fract_y
  _atom_site_fract_z
  _atom_site_occupancy
  N   N1        1.0  0.9138649862528516  0.4070493078322155  0.4103892227592252  1.0000
  C   C1        1.0  0.8413465332448044  0.3994167304241756  0.47283668554911196  1.0000
  C   C2        1.0  0.7511278617183605  0.3899207606394224  0.5505302628160369  1.0000
  C   C3        1.0  0.6638302718203517  0.3975675246966255  0.47502870003522957  1.0000
  C   C4        1.0  0.5760758722754722  0.38992074863134807  0.5505302427635128  1.0000
  C   C5        1.0  0.48632728084041643  0.3994167457781707  0.4728367795880559  1.0000
  N   N2        1.0  0.41418680032107835  0.40704927463745744  0.4103893281795168  1.0000
  C   C6        1.0  0.5756092867084877  0.37373032332920425  0.7017093291925347  1.0000
  C   C7        1.0  0.6629121927825972  0.36322291865857365  0.7784725792789651  1.0000
  C   C8        1.0  0.6624189908270581  0.35061297555936854  0.9414437511570821  1.0000
  F   F1        1.0  0.7431986511761939  0.28370930152674134  0.9930289691687466  1.0000
  F   F2        1.0  0.5813298362154594  0.28370927484072705  0.9930290684348517  1.0000
  F   F3        1.0  0.6622597184573021  0.4733263192341388  0.993149011281153  1.0000
  C   C9        1.0  0.7506796134918998  0.3737302377485838  0.7017093488023523  1.0000
  H   H1        1.0  0.6641844314197981  0.4102469444551195  0.3579804912193867  1.0000
  H   H2        1.0  0.5073116010641802  0.3695686529274651  0.7593437745382696  1.0000
  H   H3        1.0  0.8186283547092443  0.36956857974338164  0.7593437335088955  1.0000
  C   C10       1.0  0.16403047223709444  0.025801909526791626  0.4103954666898566  1.0000
  C   C11       1.0  0.2636340706453182  0.022899587148611508  0.4381532907470578  1.0000
  C   C12       1.0  0.31305471801842594  0.9045026874651221  0.4519258814397338  1.0000
  C   C13       1.0  0.263634070079746  0.7877916178908793  0.4381532229705871  1.0000
  C   C14       1.0  0.1640304822902999  0.7882868520549725  0.41039554918659693  1.0000
  C   C15       1.0  0.11471420574973434  0.907885534998217  0.39665191237752784  1.0000
  Cl  Cl1       1.0  0.4374833438872986  0.9023805113988795  0.4866019177833003  1.0000
  H   H4        1.0  0.12651154365353556  0.35419827486111144  0.39993877369567565  1.0000
  H   H5        1.0  0.3032488427587625  0.11227052643995127  0.4491931282446999  1.0000
  H   H6        1.0  0.3032488048937974  0.6970693327138433  0.44919302470492867  1.0000
  H   H7        1.0  0.03789688812064519  0.9091955665729987  0.37524419967323275  1.0000
  H   H8        1.0  0.1265115381218993  0.46117031054474567  0.39993904578334005  1.0000
  C   C16       1.0  0.16531150072595602  0.40337462215546904  0.987197711770269  1.0000
  C   C17       1.0  0.24852211633147084  0.4456981323790481  0.056893755068550655  1.0000
  C   C18       1.0  0.32678043688178704  0.4982304094923981  0.9770156008599086  1.0000
  C   C19       1.0  0.32274045928956746  0.509274331012131  0.8263566537343525  1.0000
  C   C20       1.0  0.24151468020580036  0.465899520344232  0.7553190687621125  1.0000
  C   C21       1.0  0.16274950113450967  0.41071406944986033  0.8335932823342631  1.0000
  C   C22       1.0  0.4109372672844742  0.5423619345484876  0.05001923647725537  1.0000
  N   N3        1.0  0.47857781034754576  0.5778317809883956  0.10870184404035332  1.0000
  H   H9        1.0  0.9304161281018295  0.35960082808417915  0.09503529228514251  1.0000
  H   H10       1.0  0.38285664796469265  0.5503406327940921  0.7635338657115804  1.0000
  H   H11       1.0  0.24130110872572133  0.4727251206753671  0.6382546292529785  1.0000
  H   H12       1.0  0.00560747452197896  0.37579077353441603  0.55618676106914  1.0000
  Zn  Zn1       1.0  0.05824702928080816  0.407045904383392  0.41039755973426395  1.0000
  Zn  Zn2       1.0  0.26980470426911984  0.40704219055966656  0.4103927414785713  1.0000
  C   C23       1.0  0.1632315968901493  0.4041547531530154  0.6736063708778488  1.0000
  C   C24       1.0  0.1648224464349186  0.4099349810736976  0.1471840717295123  1.0000
  C   C25       1.0  0.1640429112527122  0.6441111393879644  0.4046527025649864  1.0000
  C   C26       1.0  0.16401105964987392  0.1699770357006691  0.41613781687673623  1.0000
  O   O1        1.0  0.2449433504630274  0.41212962414273524  0.20087512712213007  1.0000
  O   O2        1.0  0.2436780743224903  0.40195630836990576  0.6199112436908332  1.0000
  O   O3        1.0  0.2443321341141434  0.5957241379304179  0.40272925366107537  1.0000
  O   O4        1.0  0.2442892188081507  0.21836180293376153  0.418057009098731  1.0000
  O   O5        1.0  0.08376244254754854  0.5957262920119126  0.40273329210816744  1.0000
  O   O6        1.0  0.0831083829841484  0.4019600215920951  0.6199152052976278  1.0000
  O   O7        1.0  0.08437366443361641  0.4121332770987204  0.20087735607252788  1.0000
  O   O8        1.0  0.08371953244773422  0.21836544754082343  0.4180593460963502  1.0000
