data_image0
_chemical_formula_structural       NC5OC5NC4H8C6BrH5C6NCOH5Zn2C4O8
_chemical_formula_sum              "N3 C31 O10 H18 Br1 Zn2"
_cell_length_a       19.189071930511275
_cell_length_b       9.276564384272257
_cell_length_c       9.27373355559583
_cell_angle_alpha    86.1252681461469
_cell_angle_beta     89.98918376362916
_cell_angle_gamma    90.57707898574843

_space_group_name_H-M_alt    "P 1"
_space_group_IT_number       1

loop_
  _space_group_symop_operation_xyz
  'x, y, z'

loop_
  _atom_site_type_symbol
  _atom_site_label
  _atom_site_symmetry_multiplicity
  _atom_site_fract_x
  _atom_site_fract_y
  _atom_site_fract_z
  _atom_site_occupancy
  N   N1        1.0  0.6637840323030474  0.5609711784105689  0.40843115941551855  1.0000
  C   C1        1.0  0.6095772877341193  0.6119633720012649  0.3880886367964427  1.0000
  C   C2        1.0  0.5421510781153175  0.6753891599724429  0.3627855963230632  1.0000
  C   C3        1.0  0.5329708549801465  0.7818064417870301  0.2501459767363816  1.0000
  C   C4        1.0  0.4674739901353019  0.843499087074689  0.22570663666125856  1.0000
  C   C5        1.0  0.4104977845960562  0.7986433364871457  0.31240298233955355  1.0000
  O   O1        1.0  0.3458495062036867  0.8643415587822667  0.28544673277447474  1.0000
  C   C6        1.0  0.2805556155571261  0.7984261330379843  0.31177702704862753  1.0000
  C   C7        1.0  0.22422393643497668  0.8849425146525329  0.34528482092528057  1.0000
  C   C8        1.0  0.1581234082934909  0.8235769951787801  0.3706679231892291  1.0000
  C   C9        1.0  0.14769157242664163  0.6748798803296943  0.3613165486361453  1.0000
  C   C10       1.0  0.0796440820587487  0.6116827715557878  0.38727912872304576  1.0000
  N   N2        1.0  0.024937901058371608  0.5608744967632383  0.4081523754872417  1.0000
  C   C11       1.0  0.2035480081842779  0.5879983421640247  0.3256812064216259  1.0000
  C   C12       1.0  0.26963989996501  0.6494081770396128  0.30034649176844597  1.0000
  C   C13       1.0  0.4201653924518057  0.6932476322748198  0.4268377645426935  1.0000
  C   C14       1.0  0.48565333161846624  0.6315511605198769  0.4513452233320398  1.0000
  H   H1        1.0  0.5763877753249227  0.8171711877521015  0.18143100863147915  1.0000
  H   H2        1.0  0.4608381009175551  0.9258875969881039  0.13855371754036527  1.0000
  H   H3        1.0  0.23182863117917002  3.188768085760038e-05  0.352485052388136  1.0000
  H   H4        1.0  0.11521559819991578  0.8920076621003749  0.39735948677493904  1.0000
  H   H5        1.0  0.1959373787611767  0.47306027357407276  0.31673312332922743  1.0000
  H   H6        1.0  0.3118391949660334  0.5811685883339612  0.26986631648167103  1.0000
  H   H7        1.0  0.3774697778598078  0.6603298663245692  0.4982731745582383  1.0000
  H   H8        1.0  0.49230169849892075  0.5503391872619707  0.5397084358084159  1.0000
  C   C15       1.0  0.8422647762308996  0.13744640997755653  0.40866192277885127  1.0000
  C   C16       1.0  0.8333148399382233  0.21953398445205521  0.2769450798582242  1.0000
  C   C17       1.0  0.8308505976769044  0.15314487430680668  0.14645359572216463  1.0000
  C   C18       1.0  0.8373204430424307  0.0037225907810565203  0.14520116651827686  1.0000
  C   C19       1.0  0.845042410239508  0.9199206321196118  0.2749270718531713  1.0000
  C   C20       1.0  0.8464637970427776  0.9843883093048229  0.4079340146066715  1.0000
  Br  Br1       1.0  0.8344615768467271  0.9134433012546568  0.9661436473687343  1.0000
  H   H9        1.0  0.8218641561873974  0.40251967027068475  0.6429863692501663  1.0000
  H   H10       1.0  0.8298754368136786  0.3361648095477514  0.2744804012983092  1.0000
  H   H11       1.0  0.8245735194645666  0.2182890625043068  0.04606880675185864  1.0000
  H   H12       1.0  0.8482663093127359  0.8036464293921284  0.2718173300831481  1.0000
  H   H13       1.0  0.8849398567381543  0.6888550911756659  0.632370673294931  1.0000
  C   C21       1.0  0.8443018830629128  0.5563739054686991  0.9850749233277084  1.0000
  C   C22       1.0  0.7802108502905252  0.548114053679414  0.05908294830905736  1.0000
  C   C23       1.0  0.7168115134776191  0.5515406104223994  0.9841794931170805  1.0000
  C   C24       1.0  0.7175078741919353  0.5679145610162714  0.8328172113455757  1.0000
  C   C25       1.0  0.7805403809017102  0.574022819577918  0.7576078521424503  1.0000
  C   C26       1.0  0.8444266844210695  0.5654608227157385  0.8315210849248037  1.0000
  N   N3        1.0  0.6525299003670012  0.5464999458113327  0.06424793435041098  1.0000
  C   C27       1.0  0.5894163769999253  0.48011031826693995  0.017571053823113525  1.0000
  O   O2        1.0  0.5886715649639818  0.40379449343694157  0.910286091410514  1.0000
  H   H14       1.0  0.009015861862397672  0.6564637721930621  0.0811755321790455  1.0000
  H   H15       1.0  0.6694272522839436  0.5775288868650018  0.772231504050259  1.0000
  H   H16       1.0  0.9558836215283775  0.6267777532292551  0.5462763099607483  1.0000
  H   H17       1.0  0.6524704290871552  0.5848435734937414  0.16763417263395938  1.0000
  H   H18       1.0  0.5418454183672733  0.4922171110148521  0.07801827378195592  1.0000
  Zn  Zn1       1.0  0.7680052284056199  0.5609395203904914  0.40835902819495007  1.0000
  Zn  Zn2       1.0  0.9207166658030476  0.560894528408106  0.40823630051832105  1.0000
  C   C28       1.0  0.8443730583278993  0.5579983036876363  0.6715295554519449  1.0000
  C   C29       1.0  0.844350512526805  0.5638375656805943  0.14506591181296463  1.0000
  C   C30       1.0  0.8456656564426319  0.8242366311270768  0.40232851450303087  1.0000
  C   C31       1.0  0.8430578537237853  0.29759750650314093  0.4142670311301039  1.0000
  O   O3        1.0  0.9023199964577032  0.5663190727006677  0.19871377997739917  1.0000
  O   O4        1.0  0.9023080164247151  0.5554815564447994  0.617788125881034  1.0000
  O   O5        1.0  0.9033510247336701  0.7704723892133829  0.40040638001199  1.0000
  O   O6        1.0  0.9012769360738913  0.3513282491033276  0.41609541781819537  1.0000
  O   O7        1.0  0.7874449060218639  0.7705057997121121  0.4004999109293741  1.0000
  O   O8        1.0  0.7864019062882841  0.5555166986983833  0.6178815784644918  1.0000
  O   O9        1.0  0.7864138858629881  0.5663541460996152  0.1988054998440327  1.0000
  O   O10       1.0  0.785370825441121  0.3513633133478738  0.4161872457473761  1.0000
