data_image0
_chemical_formula_structural       NC5NC3F3CH3C9H10C6ClH5Zn2C4O8
_chemical_formula_sum              "N2 C28 F3 H18 Cl1 Zn2 O8"
_cell_length_a       13.85151926108384
_cell_length_b       10.297183801781406
_cell_length_c       10.302974078461048
_cell_angle_alpha    85.53397833117516
_cell_angle_beta     89.99987480856441
_cell_angle_gamma    89.99762972311773

_space_group_name_H-M_alt    "P 1"
_space_group_IT_number       1

loop_
  _space_group_symop_operation_xyz
  'x, y, z'

loop_
  _atom_site_type_symbol
  _atom_site_label
  _atom_site_symmetry_multiplicity
  _atom_site_fract_x
  _atom_site_fract_y
  _atom_site_fract_z
  _atom_site_occupancy
  N   N1        1.0  0.9090406369189089  0.421683739922011  0.5673164790511449  1.0000
  C   C1        1.0  0.8367112829570295  0.41350475869380154  0.6235768055178048  1.0000
  C   C2        1.0  0.7467278776955595  0.4033289844187446  0.693572700061877  1.0000
  C   C3        1.0  0.6592016733209098  0.4116354271112903  0.6255523805189238  1.0000
  C   C4        1.0  0.5716758881920783  0.40332897257747535  0.6935726820028695  1.0000
  C   C5        1.0  0.48169203083716455  0.4135047732410375  0.6235768902270488  1.0000
  N   N2        1.0  0.40936245130654236  0.42168370579269276  0.5673165740361624  1.0000
  C   C6        1.0  0.5716670722071115  0.3858171266078017  0.8297722577221295  1.0000
  C   C7        1.0  0.6592024374150387  0.37463738443282857  0.8989305259058018  1.0000
  C   C8        1.0  0.659202668286921  0.3606058467496698  0.04575150787391535  1.0000
  F   F1        1.0  0.7401390750899237  0.29321455356505877  0.09225414236072647  1.0000
  F   F2        1.0  0.5782702604299097  0.29321452600177667  0.09225423179860581  1.0000
  F   F3        1.0  0.6591988169936787  0.48294398307572134  0.09227357805776193  1.0000
  C   C9        1.0  0.7467373990506457  0.3858170408058279  0.8297722754279706  1.0000
  H   H1        1.0  0.6592014101951662  0.42533802389206543  0.520101772530027  1.0000
  H   H2        1.0  0.5035438854925232  0.3811528901715713  0.8816950797644205  1.0000
  H   H3        1.0  0.8148606390140417  0.3811528172996988  0.8816950428367157  1.0000
  C   C10       1.0  0.15920953723466824  0.04020817604447946  0.5675004580441843  1.0000
  C   C11       1.0  0.15639517332000463  0.050068164719973  0.4308849766708928  1.0000
  C   C12       1.0  0.15495306908109696  0.9385032378626725  0.3608928705039183  1.0000
  C   C13       1.0  0.15638386349984024  0.8148970719097214  0.43035547529426393  1.0000
  C   C14       1.0  0.15920279408590757  0.8031493026393917  0.5671437552879424  1.0000
  C   C15       1.0  0.16059631308896916  0.9162809830943651  0.634823324033839  1.0000
  C   C16       1.0  0.15190886867160813  0.9585997066527524  0.2131335807731416  1.0000
  C   C17       1.0  0.09537951382656518  0.859882795720403  0.1408631879193194  1.0000
  C   C18       1.0  0.20536530381982177  0.8601910070184269  0.13673897752161546  1.0000
  H   H4        1.0  0.1603031688405723  0.3639472601355309  0.6201427849827564  1.0000
  H   H5        1.0  0.15530887630557036  0.1452970296818903  0.37814386356964874  1.0000
  H   H6        1.0  0.1553253906095038  0.727297368623007  0.37907897269898627  1.0000
  H   H7        1.0  0.1627671700681573  0.9079463519130356  0.7402250367404888  1.0000
  H   H8        1.0  0.1645141358952995  0.5737446244578297  0.8254982997334087  1.0000
  H   H9        1.0  0.15093129546945305  0.05931527292403671  0.1656411475279087  1.0000
  H   H10       1.0  0.06316442592012206  0.7762452849207779  0.19994508656530893  1.0000
  H   H11       1.0  0.061320328604717256  0.9007557705550046  0.04900950915900303  1.0000
  H   H12       1.0  0.23996067707546398  0.7767415177450551  0.19331631755791265  1.0000
  H   H13       1.0  0.23558797258743724  0.9012417504652944  0.0424736814254576  1.0000
  C   C19       1.0  0.15920616579760338  0.4216787554410307  0.18607962680045764  1.0000
  C   C20       1.0  0.14241428820567203  0.2867555589246207  0.19537637077420064  1.0000
  C   C21       1.0  0.13408266605327301  0.21981034371896624  0.08303237037564569  1.0000
  C   C22       1.0  0.14241433138276793  0.2867556322892446  0.9602684717688009  1.0000
  C   C23       1.0  0.15920616333568297  0.4216786883854087  0.9485646459052258  1.0000
  C   C24       1.0  0.16752026656509678  0.4884826208447928  0.06212319492543017  1.0000
  Cl  Cl1       1.0  0.1131056249068612  0.05125921818415358  0.09614975494077016  1.0000
  H   H14       1.0  0.16553193292424062  0.4725019947967197  0.5098806428957228  1.0000
  H   H15       1.0  0.135735779494121  0.23309345293871586  0.2895991326660208  1.0000
  H   H16       1.0  0.1357358469562591  0.23309343440232877  0.8743981666007866  1.0000
  H   H17       1.0  0.18047062325808394  0.5925394396734507  0.0540249419043639  1.0000
  H   H18       1.0  0.16553174922068736  0.4725019833010255  0.6168530124197007  1.0000
  Zn  Zn1       1.0  0.05342270521354678  0.4216802620994906  0.5673239911353254  1.0000
  Zn  Zn2       1.0  0.2649803656498738  0.4216765878601685  0.5673196522730837  1.0000
  C   C25       1.0  0.15920404260071885  0.41650360079746895  0.804441043098272  1.0000
  C   C26       1.0  0.15920133845124942  0.42685488819983886  0.3302027269206822  1.0000
  C   C27       1.0  0.15919908593481735  0.6589371864439402  0.5620377451638703  1.0000
  C   C28       1.0  0.15920622294113604  0.18441974181574367  0.57260609480189  1.0000
  O   O1        1.0  0.23948474799350217  0.42858498395789196  0.3785701119756826  1.0000
  O   O2        1.0  0.2394880022272823  0.41476973638035  0.7560699916832677  1.0000
  O   O3        1.0  0.23948291737624994  0.6105379227997589  0.5603276129484157  1.0000
  O   O4        1.0  0.2394897606541555  0.23281680683256134  0.5743123933652818  1.0000
  O   O5        1.0  0.07891323801501815  0.610540043129766  0.5603312500377788  1.0000
  O   O6        1.0  0.07891832284781898  0.4147734174506495  0.7560735588204758  1.0000
  O   O7        1.0  0.0789150686786837  0.42858861975964424  0.3785721182509618  1.0000
  O   O8        1.0  0.07892008133546935  0.23282043334290312  0.5743144969804652  1.0000
