data_image0
_chemical_formula_structural       NC9NC3OH6C12H10C6NO2H3Zn2C4O8
_chemical_formula_sum              "N3 C34 O11 H19 Zn2"
_cell_length_a       15.78231758774541
_cell_length_b       10.299137764757564
_cell_length_c       9.273395971720355
_cell_angle_alpha    84.94328469474783
_cell_angle_beta     89.96902430017013
_cell_angle_gamma    89.65025930418041

_space_group_name_H-M_alt    "P 1"
_space_group_IT_number       1

loop_
  _space_group_symop_operation_xyz
  'x, y, z'

loop_
  _atom_site_type_symbol
  _atom_site_label
  _atom_site_symmetry_multiplicity
  _atom_site_fract_x
  _atom_site_fract_y
  _atom_site_fract_z
  _atom_site_occupancy
  N   N1        1.0  0.7999724547475128  0.428332088733852  0.40973618992200866  1.0000
  C   C1        1.0  0.7513932993092998  0.3460101575085367  0.4365359655831742  1.0000
  C   C2        1.0  0.6910804865740967  0.24382862704277183  0.469801390923601  1.0000
  C   C3        1.0  0.7106697086950485  0.11547298827797436  0.5114998526590178  1.0000
  C   C4        1.0  0.6339034788227887  0.053266042113835343  0.5317914318099646  1.0000
  C   C5        1.0  0.5721770725420589  0.14826347361565467  0.5009756855885199  1.0000
  C   C6        1.0  0.4790759458238536  0.13069894152775996  0.5067750549409082  1.0000
  C   C7        1.0  0.42539254790320824  0.23839216175375805  0.47165809198686404  1.0000
  C   C8        1.0  0.3371777342012521  0.223989591715799  0.4764213957700465  1.0000
  C   C9        1.0  0.2827996446235311  0.3348162882205774  0.4402735196952372  1.0000
  N   N2        1.0  0.23909254880233172  0.423906667076185  0.4112138597891657  1.0000
  C   C10       1.0  0.30196493678934977  0.10173349396937346  0.5163561878637135  1.0000
  C   C11       1.0  0.35471752429683406  0.994262880919817  0.5514053909034635  1.0000
  C   C12       1.0  0.44274644857550965  0.008269802546935207  0.5467715288564845  1.0000
  O   O1        1.0  0.6086999074437406  0.2608487967607009  0.4643466835844201  1.0000
  H   H1        1.0  0.7731054383104834  0.07218739354321448  0.5255055445203782  1.0000
  H   H2        1.0  0.6251128510570286  0.9509826268222835  0.5650367659498254  1.0000
  H   H3        1.0  0.4520525916622977  0.33352913292448794  0.4405764941161046  1.0000
  H   H4        1.0  0.23384159528203471  0.08953528777756148  0.5203880991405394  1.0000
  H   H5        1.0  0.3273275374065949  0.8997763110315093  0.5822749697162826  1.0000
  H   H6        1.0  0.4817840941662431  0.9231454223639506  0.5745421366718615  1.0000
  C   C13       1.0  0.019454812549616788  0.0447187892362051  0.4106321319609858  1.0000
  C   C14       1.0  0.0195904545844383  0.05600078193647628  0.2586225488280596  1.0000
  C   C15       1.0  0.019743162080976043  0.9445900884966415  0.18139223750673872  1.0000
  C   C16       1.0  0.019758343267616725  0.8207476353227539  0.2582261287957681  1.0000
  C   C17       1.0  0.01961825167736397  0.8075097899617234  0.4103304313025393  1.0000
  C   C18       1.0  0.019468769295976508  0.9200216682139555  0.4855970198069193  1.0000
  C   C19       1.0  0.019885654489422352  0.9575702457937446  0.020581113520175883  1.0000
  C   C20       1.0  0.07107649934240934  0.8754704327338623  0.9430912060423896  1.0000
  C   C21       1.0  0.07110531910879286  0.8879400097674581  0.7917205518899166  1.0000
  C   C22       1.0  0.020157804180216402  0.9821504633536746  0.7161293045441846  1.0000
  C   C23       1.0  0.9690751897191581  0.06415239314814178  0.7917552619009514  1.0000
  C   C24       1.0  0.9688333191233082  0.05217985087115839  0.9431261746367392  1.0000
  H   H7        1.0  0.019359393534525076  0.36785536161857024  0.4691049241417153  1.0000
  H   H8        1.0  0.02075020795671967  0.15166801077799574  0.19993262902429354  1.0000
  H   H9        1.0  0.01870837035156402  0.7345441517821845  0.19925478709703648  1.0000
  H   H10       1.0  0.019361825854397278  0.9106041022320379  0.6028454915986208  1.0000
  H   H11       1.0  0.018815059348303617  0.5752379148530516  0.6974175107357163  1.0000
  H   H12       1.0  0.11185193554695982  0.8028657669318726  0.9994995183162039  1.0000
  H   H13       1.0  0.11084289845338331  0.8246845976446493  0.7329910239189279  1.0000
  H   H14       1.0  0.020262638234761484  0.9916104869403476  0.598958333733743  1.0000
  H   H15       1.0  0.9294426926339941  0.13688894681478292  0.7330512613548987  1.0000
  H   H16       1.0  0.9279573066823453  0.11567583827757377  0.9995537066933106  1.0000
  C   C25       1.0  0.020019571920866  0.4300993975918691  0.9865446039547544  1.0000
  C   C26       1.0  0.9445060971815946  0.4605051407866869  0.05686545004225252  1.0000
  C   C27       1.0  0.8687528200005652  0.4786324422684487  0.9801742330990462  1.0000
  C   C28       1.0  0.8663638818510505  0.4667244232894119  0.8308762847265716  1.0000
  C   C29       1.0  0.941832554104236  0.43854459810966134  0.7591167280276667  1.0000
  C   C30       1.0  0.01905347717107596  0.42212917988600474  0.8344179643745346  1.0000
  N   N3        1.0  0.7878185156829396  0.4844470321112313  0.7524677593378635  1.0000
  O   O2        1.0  0.7141898261960066  0.5131014615338989  0.8229835281524167  1.0000
  O   O3        1.0  0.7851177782700558  0.47377072502755424  0.6194673707483904  1.0000
  H   H17       1.0  0.20539561952199792  0.2827286277052179  0.10364801473801899  1.0000
  H   H18       1.0  0.8117332868748479  0.5007433941317094  0.038356808376040386  1.0000
  H   H19       1.0  0.14544798301438  0.32669205446407723  0.5634313292267268  1.0000
  Zn  Zn1       1.0  0.9266930144960335  0.4270514600709492  0.4101709447730906  1.0000
  Zn  Zn2       1.0  0.1123719448433247  0.42517658445597956  0.410790910425729  1.0000
  C   C31       1.0  0.019233107813592998  0.41846163671616443  0.6741537658871284  1.0000
  C   C32       1.0  0.01983387932360701  0.4337680247604876  0.14680823712753654  1.0000
  C   C33       1.0  0.019589557638061146  0.6633801771238456  0.4046346148243878  1.0000
  C   C34       1.0  0.019477365717840853  0.18884792383728644  0.4163274655628759  1.0000
  O   O4        1.0  0.09023574437043952  0.43428207781615913  0.2008294524221288  1.0000
  O   O5        1.0  0.08975725484592173  0.4165236205532707  0.6206026749913183  1.0000
  O   O6        1.0  0.09004414098579433  0.6142984348308245  0.4029640499096274  1.0000
  O   O7        1.0  0.0899487949962498  0.23650727448687964  0.4184679690451285  1.0000
  O   O8        1.0  0.9491161009800106  0.6157207706813372  0.40249388593453284  1.0000
  O   O9        1.0  0.9488292152583391  0.41794751756059195  0.6201324334244671  1.0000
  O   O10       1.0  0.949307706807159  0.4357059458790251  0.20035747519177405  1.0000
  O   O11       1.0  0.9490207573041892  0.23793113224275952  0.4179961000543073  1.0000
