data_image0
_chemical_formula_structural       NC9NC3OCH8C12NCOCH13C12NH11Zn2C4O8
_chemical_formula_sum              "N4 C43 O10 H32 Zn2"
_cell_length_a       17.728193572023454
_cell_length_b       10.299155265289647
_cell_length_c       10.299774167527174
_cell_angle_alpha    85.56091470143106
_cell_angle_beta     90.69829352168311
_cell_angle_gamma    88.43175330785004

_space_group_name_H-M_alt    "P 1"
_space_group_IT_number       1

loop_
  _space_group_symop_operation_xyz
  'x, y, z'

loop_
  _atom_site_type_symbol
  _atom_site_label
  _atom_site_symmetry_multiplicity
  _atom_site_fract_x
  _atom_site_fract_y
  _atom_site_fract_z
  _atom_site_occupancy
  N   N1        1.0  0.7103896915078398  0.3866273361916044  0.5848514416758295  1.0000
  C   C1        1.0  0.6497818833832976  0.34920000070961277  0.5978666760660525  1.0000
  C   C2        1.0  0.5743334883038483  0.3026728334323081  0.6140652872846977  1.0000
  C   C3        1.0  0.5624529906113909  0.17462698515478858  0.6235212080892549  1.0000
  C   C4        1.0  0.4857486508072296  0.12517572928536924  0.6384851799422102  1.0000
  C   C5        1.0  0.4275873666573735  0.2078573481736472  0.6559311811880122  1.0000
  C   C6        1.0  0.3495436564613832  0.16281193360563084  0.6776772149549735  1.0000
  C   C7        1.0  0.2881923456683329  0.2482774737252449  0.6421929709180916  1.0000
  C   C8        1.0  0.21392185155271748  0.20897728534564952  0.6623512536467735  1.0000
  C   C9        1.0  0.1515915586787763  0.29697925052802376  0.6247920296311344  1.0000
  N   N2        1.0  0.1014914136669407  0.36772430405582646  0.5945979639795953  1.0000
  C   C10       1.0  0.2003711525727904  0.08409199521109634  0.719047858932891  1.0000
  C   C11       1.0  0.26082365660905044  0.998944433672599  0.7559405209771439  1.0000
  C   C12       1.0  0.3349905789346352  0.03775499216924483  0.7359119544779671  1.0000
  O   O1        1.0  0.4409245791106428  0.3416536454473629  0.6545983539476825  1.0000
  C   C13       1.0  0.5086439664492174  0.3990249012518685  0.6059747388773857  1.0000
  H   H1        1.0  0.6093902325159017  0.10515992866197399  0.6214395363040182  1.0000
  H   H2        1.0  0.4781112984345476  0.021517388678524058  0.6365316701284318  1.0000
  H   H3        1.0  0.2980723166891772  0.3450982356030112  0.5977411105435193  1.0000
  H   H4        1.0  0.1431600405502692  0.05280570622093993  0.7351961041740276  1.0000
  H   H5        1.0  0.2502068613671793  0.9027827233657094  0.8008533148747456  1.0000
  H   H6        1.0  0.38052918256884144  0.9705281071385561  0.7683496282587483  1.0000
  H   H7        1.0  0.49917608994991813  0.4349280066087946  0.5024426423496147  1.0000
  H   H8        1.0  0.5215101064796064  0.48343382617082  0.6625311930058744  1.0000
  C   C14       1.0  0.906028458610936  0.9957741258641893  0.5898455954734931  1.0000
  C   C15       1.0  0.8931464368502154  0.006069024746323524  0.45460601917697724  1.0000
  C   C16       1.0  0.8865419003846245  0.8941545800390482  0.38591716576112  1.0000
  C   C17       1.0  0.8929660160562292  0.7708179119536924  0.454293753296255  1.0000
  C   C18       1.0  0.9058599250795691  0.7585672215355881  0.5896152123826484  1.0000
  C   C19       1.0  0.9123151240464656  0.8715660688379674  0.6565581216885137  1.0000
  C   C20       1.0  0.872915208435791  0.9060189642573552  0.24285004734664462  1.0000
  C   C21       1.0  0.9111926454751547  0.9982630313620021  0.16239035695590198  1.0000
  C   C22       1.0  0.8983752401009287  0.00929702116164566  0.027754820250367462  1.0000
  C   C23       1.0  0.8474933633373745  0.9274024613640046  0.9707389909122531  1.0000
  C   C24       1.0  0.8082941227185939  0.8370192190683603  0.0511075532212204  1.0000
  C   C25       1.0  0.8211390163716157  0.8257278735652329  0.18570644132523384  1.0000
  N   N3        1.0  0.8322476197744896  0.9383519582420383  0.8328047695326797  1.0000
  C   C26       1.0  0.8873569268689626  0.9726046308058888  0.7359652366449989  1.0000
  O   O2        1.0  0.9565863059487973  0.9717986446658466  0.7655475257199162  1.0000
  C   C27       1.0  0.8632912525767047  0.00018595992437186616  0.5968324319807423  1.0000
  H   H9        1.0  0.9110068600163279  0.3192893209212091  0.6418594110669851  1.0000
  H   H10       1.0  0.8871792427983167  0.10139184162001279  0.4026502243808095  1.0000
  H   H11       1.0  0.8889100404025827  0.6842040069215887  0.40156681659573445  1.0000
  H   H12       1.0  0.9222538371597833  0.862910410205895  0.7608708509472111  1.0000
  H   H13       1.0  0.9306483974833445  0.5281394988224839  0.8449078374365389  1.0000
  H   H14       1.0  0.9514873051576178  0.061372118030259326  0.2034848742485478  1.0000
  H   H15       1.0  0.9273302315496701  0.0833408875271131  0.9688988965780592  1.0000
  H   H16       1.0  0.7679270987721748  0.7746175013503188  0.009144239297595112  1.0000
  H   H17       1.0  0.7897590520553702  0.7554177328335006  0.24533483943132994  1.0000
  H   H18       1.0  0.7790969564737463  0.9120458854788892  0.8004083042875743  1.0000
  H   H19       1.0  0.8088165541708093  0.05626362152422405  0.5910214641922096  1.0000
  H   H20       1.0  0.8563110824470592  0.9069043652434542  0.5514366384958831  1.0000
  H   H21       1.0  0.9062559269610335  0.0581891996424495  0.542510578508236  1.0000
  C   C28       1.0  0.9059698804868597  0.37705488556551453  0.2083789950041126  1.0000
  C   C29       1.0  0.8320714743952738  0.3313210117881067  0.2093727796802252  1.0000
  C   C30       1.0  0.7946001187064211  0.30826440065045624  0.09272782549655667  1.0000
  C   C31       1.0  0.8320195777435416  0.3315548385840281  0.9740667067555577  1.0000
  C   C32       1.0  0.9059184643662762  0.3772864624709449  0.9710817903529825  1.0000
  C   C33       1.0  0.9424796806633057  0.39978090196757643  0.08874689623456211  1.0000
  C   C34       1.0  0.7164198878536402  0.2598811795986873  0.09483254056428403  1.0000
  C   C35       1.0  0.6952327168365405  0.16244392530859564  0.18963247573888564  1.0000
  C   C36       1.0  0.6216459662370019  0.11696133591027634  0.1914796250038222  1.0000
  C   C37       1.0  0.5680823720129932  0.16807954788483515  0.09882579358160527  1.0000
  C   C38       1.0  0.5887716388212942  0.26515067715200513  0.004172930672544651  1.0000
  C   C39       1.0  0.6623357065580585  0.31073563236002055  0.002058906005691477  1.0000
  N   N4        1.0  0.49282021731058195  0.12150179518678694  0.10085173952951787  1.0000
  H   H22       1.0  0.9341414028249245  0.39442729430944845  0.5354582542469495  1.0000
  H   H23       1.0  0.8031022486818488  0.3152167134903441  0.3009417204892877  1.0000
  H   H24       1.0  0.8037617296027592  0.3122435115903397  0.8840382174447008  1.0000
  H   H25       1.0  0.9994890626579376  0.4350615851811334  0.08721225434127877  1.0000
  H   H26       1.0  0.9340659505268198  0.3947679164778948  0.6424864964290009  1.0000
  H   H27       1.0  0.7358360960609122  0.12021023302318777  0.2613060997491463  1.0000
  H   H28       1.0  0.6064393966029266  0.04164393294597036  0.264941564881914  1.0000
  H   H29       1.0  0.5478535879622958  0.30573414259069587  0.9322219055203108  1.0000
  H   H30       1.0  0.6766598680314312  0.3869622446230327  0.92890673681142  1.0000
  H   H31       1.0  0.4524980217087943  0.1590097795529808  0.03217179852799502  1.0000
  H   H32       1.0  0.4768657804049923  0.04916603142123854  0.17104703374079966  1.0000
  Zn  Zn1       1.0  0.8232532119853033  0.3811688610708735  0.5876715778953476  1.0000
  Zn  Zn2       1.0  0.9886279204116397  0.3731721777789563  0.5917884681427494  1.0000
  C   C40       1.0  0.905927652405686  0.37206862264148727  0.826916181454763  1.0000
  C   C41       1.0  0.9059552855072134  0.3822739676831957  0.35254403650533517  1.0000
  C   C42       1.0  0.9058882249758757  0.6143816792927776  0.5844837408955761  1.0000
  C   C43       1.0  0.9059946568463481  0.13995935334564202  0.5949765453664293  1.0000
  O   O3        1.0  0.9687092285410777  0.3809851734587182  0.40248948150183167  1.0000
  O   O4        1.0  0.968689286798841  0.3672871393582957  0.780094987364714  1.0000
  O   O5        1.0  0.9686566025404533  0.5629580383902029  0.5843290548942082  1.0000
  O   O6        1.0  0.9687418563727889  0.18531428641699366  0.598255315194516  1.0000
  O   O7        1.0  0.8431392195898826  0.5690267551631238  0.5812047294318574  1.0000
  O   O8        1.0  0.8431719035046743  0.3733574165477669  0.7769705921887327  1.0000
  O   O9        1.0  0.8431918454123315  0.3870554049119346  0.3993635250117238  1.0000
  O   O10       1.0  0.8432244732364476  0.19138450861031497  0.5951294560705065  1.0000
