data_image0
_chemical_formula_structural       NC9NC3SH6C6NO2H5C6OCH7Zn2C4O8
_chemical_formula_sum              "N3 C29 S1 H18 O11 Zn2"
_cell_length_a       16.77567553997237
_cell_length_b       9.273392599741053
_cell_length_c       9.273891588657152
_cell_angle_alpha    86.1963526091537
_cell_angle_beta     90.06962488754225
_cell_angle_gamma    90.29770283283837

_space_group_name_H-M_alt    "P 1"
_space_group_IT_number       1

loop_
  _space_group_symop_operation_xyz
  'x, y, z'

loop_
  _atom_site_type_symbol
  _atom_site_label
  _atom_site_symmetry_multiplicity
  _atom_site_fract_x
  _atom_site_fract_y
  _atom_site_fract_z
  _atom_site_occupancy
  N   N1        1.0  0.7464785750437832  0.5846443086231119  0.4212843289241927  1.0000
  C   C1        1.0  0.6912718030668265  0.6398342719804877  0.46757773510004197  1.0000
  C   C2        1.0  0.6227594314503326  0.708321363249942  0.5250243115095872  1.0000
  C   C3        1.0  0.6240047813582644  0.8070873081824338  0.6307425012976884  1.0000
  C   C4        1.0  0.5479819433381338  0.855675452420005  0.6658249823288196  1.0000
  C   C5        1.0  0.486566617143787  0.7949563576245209  0.5873167258654155  1.0000
  C   C6        1.0  0.39987258787930363  0.8240074201685622  0.5994249159311882  1.0000
  C   C7        1.0  0.3437638804095856  0.7350490828242671  0.5345355632868745  1.0000
  C   C8        1.0  0.26193599594634787  0.7618571451925089  0.5454660404601825  1.0000
  C   C9        1.0  0.2051816221822316  0.6699216239542589  0.4790214014683678  1.0000
  N   N2        1.0  0.1595680235730266  0.5960186421900244  0.4256097280166691  1.0000
  C   C10       1.0  0.2353855559571636  0.8779700914953461  0.6211078223873415  1.0000
  C   C11       1.0  0.2904032007401128  0.9671001504303787  0.6854852420814377  1.0000
  C   C12       1.0  0.3720700997432019  0.9406983907673999  0.6748826351348869  1.0000
  S   S1        1.0  0.5281508012892521  0.6805859382208999  0.47484215420723097  1.0000
  H   H1        1.0  0.6780465978822627  0.8429240041087172  0.6816196967308428  1.0000
  H   H2        1.0  0.5390305637603073  0.931808057279374  0.7475524298555218  1.0000
  H   H3        1.0  0.3632597792543644  0.6442500103480782  0.4761215015810545  1.0000
  H   H4        1.0  0.1722496188839574  0.8996583837542395  0.6301329379848544  1.0000
  H   H5        1.0  0.26973163952717827  0.057216996986224185  0.743545420504107  1.0000
  H   H6        1.0  0.4129443558086562  0.01292391727510544  0.7247207109379166  1.0000
  C   C13       1.0  0.9554597952102347  0.1668617301050448  0.4225661622139658  1.0000
  C   C14       1.0  0.9457222593688073  0.24873988618172158  0.2907954170417899  1.0000
  C   C15       1.0  0.9289354788964779  0.18202533627649697  0.16372854089395864  1.0000
  C   C16       1.0  0.9213284439057376  0.031411124497919385  0.16488710521148753  1.0000
  C   C17       1.0  0.9323124776248707  0.9483897608080507  0.2956657772525224  1.0000
  C   C18       1.0  0.9505944570310294  0.013790438507005339  0.42434042039351816  1.0000
  N   N3        1.0  0.9033146010119923  0.9632068393591363  0.0335808793141712  1.0000
  O   O1        1.0  0.8932572204970127  0.04486166285168734  0.9055099296655404  1.0000
  O   O2        1.0  0.8962947058594996  0.8290823941756029  0.033737486420434726  1.0000
  H   H7        1.0  0.9381177179519475  0.2460891797627438  0.7761508436950899  1.0000
  H   H8        1.0  0.9492201585137537  0.3656397577302879  0.2865734540556013  1.0000
  H   H9        1.0  0.9211016867142323  0.24882385883998512  0.06458071911869112  1.0000
  H   H10       1.0  0.9284592407857425  0.8316908659160683  0.29665145044865704  1.0000
  H   H11       1.0  0.9416309391402087  0.7176380706478466  0.6633362112294146  1.0000
  C   C19       1.0  0.9543548709535764  0.5865428734252178  0.00018364670323856133  1.0000
  C   C20       1.0  0.01928144829776146  0.6492493192851148  0.06956845708529881  1.0000
  C   C21       1.0  0.07962484972610673  0.7225993982485337  0.9905450378590356  1.0000
  C   C22       1.0  0.07525685164361406  0.7336103569477105  0.8390826732576122  1.0000
  C   C23       1.0  0.012009901493484685  0.6700768581734886  0.7683713705276398  1.0000
  C   C24       1.0  0.9516993615141889  0.5941092755986445  0.8467229431308737  1.0000
  O   O3        1.0  0.14238480429487768  0.7834704070138816  0.06653624294085425  1.0000
  C   C25       1.0  0.20758730685490923  0.861170265148951  0.0003061622986377832  1.0000
  H   H12       1.0  0.765269108300076  0.49275230873841797  0.10903009656515718  1.0000
  H   H13       1.0  0.12085716188505136  0.7899407572295529  0.7747566906174792  1.0000
  H   H14       1.0  0.011324047843596752  0.6774912968745594  0.6512990299955624  1.0000
  H   H15       1.0  0.8256403425304688  0.5252807963853954  0.5698195047423908  1.0000
  H   H16       1.0  0.18563036717429807  0.958166176272413  0.9358909812842039  1.0000
  H   H17       1.0  0.24123384391348598  0.7905164463147623  0.9300915665850568  1.0000
  H   H18       1.0  0.2481916868728367  0.8967625883820628  0.0856491587315216  1.0000
  Zn  Zn1       1.0  0.8656872655199366  0.5879229199444506  0.422540870029235  1.0000
  Zn  Zn2       1.0  0.04035935858089412  0.5927283727589829  0.4243649991503988  1.0000
  C   C26       1.0  0.9522325466909655  0.586934233912942  0.6866968543217343  1.0000
  C   C27       1.0  0.953815973927374  0.5937189320444058  0.16020918006026097  1.0000
  C   C28       1.0  0.9515280223866459  0.8536514605234184  0.41826126537800223  1.0000
  C   C29       1.0  0.9545204483402253  0.3269999719297478  0.4286448415977367  1.0000
  O   O4        1.0  0.019922300308882868  0.5979446359627649  0.2146074452212503  1.0000
  O   O5        1.0  0.018698304856683782  0.5863546659032075  0.6336826437569165  1.0000
  O   O6        1.0  0.018128494287158237  0.8017321883032249  0.41691900026781564  1.0000
  O   O7        1.0  0.020492051554406473  0.38256712127281456  0.431370980036354  1.0000
  O   O8        1.0  0.8855545129394264  0.798084169792256  0.41553488851321596  1.0000
  O   O9        1.0  0.8861243137934218  0.582708379258057  0.6322984587785091  1.0000
  O   O10       1.0  0.8873483150233743  0.5942982835778103  0.2132215271873943  1.0000
  O   O11       1.0  0.8879180659859015  0.37892075953943016  0.42998517004643166  1.0000
