data_image0
_chemical_formula_structural       NC6NSH2C2NC2NH4C2H6Zn2C4O8
_chemical_formula_sum              "N4 C16 S1 H12 Zn2 O8"
_cell_length_a       14.474562073675546
_cell_length_b       10.619346103145524
_cell_length_c       8.961686928905086
_cell_angle_alpha    85.78666890065239
_cell_angle_beta     82.78122407664088
_cell_angle_gamma    89.95410760518658

_space_group_name_H-M_alt    "P 1"
_space_group_IT_number       1

loop_
  _space_group_symop_operation_xyz
  'x, y, z'

loop_
  _atom_site_type_symbol
  _atom_site_label
  _atom_site_symmetry_multiplicity
  _atom_site_fract_x
  _atom_site_fract_y
  _atom_site_fract_z
  _atom_site_occupancy
  N   N1        1.0  0.9980488454751559  0.3755198086013758  0.3430967765291528  1.0000
  C   C1        1.0  0.9207410125610277  0.35368543232601124  0.3339206580442604  1.0000
  C   C2        1.0  0.8247994604083161  0.32659097553927413  0.32253375265071593  1.0000
  C   C3        1.0  0.7911247457778378  0.2155375504363386  0.2758615303754184  1.0000
  C   C4        1.0  0.6944086868261079  0.2155376712839927  0.2758611711895331  1.0000
  C   C5        1.0  0.6533413273947757  0.3265911058936215  0.32253320575896627  1.0000
  C   C6        1.0  0.5555961001284606  0.35368564048281703  0.33392038273393054  1.0000
  N   N2        1.0  0.47683481198117605  0.3755199102471407  0.3430966587561277  1.0000
  S   S1        1.0  0.7357910037215272  0.4251172725546772  0.3639410537277601  1.0000
  H   H1        1.0  0.8348253697377229  0.13700187702129507  0.24285569274600238  1.0000
  H   H2        1.0  0.6559360786116551  0.13700215421455697  0.24285493102394073  1.0000
  C   C7        1.0  0.23770405670414946  0.005669867681798117  0.3424741124590662  1.0000
  C   C8        1.0  0.28656849320358024  0.9449031701076392  0.22345961155863447  1.0000
  N   N3        1.0  0.2850700614516042  0.8167822011641496  0.227109015552029  1.0000
  C   C9        1.0  0.23718746347774952  0.7453601545357201  0.3437323149639462  1.0000
  C   C10       1.0  0.18828949408834683  0.8061588196832123  0.46282946407264003  1.0000
  N   N4        1.0  0.1897910201975339  0.9342758753077701  0.4591722868722663  1.0000
  H   H3        1.0  0.286207137398826  0.31402487364090703  0.22432838030801805  1.0000
  H   H4        1.0  0.3255201600004693  0.9982624804680613  0.12858842325841358  1.0000
  H   H5        1.0  0.28852093154316083  0.4552443718869399  0.2186917366895853  1.0000
  H   H6        1.0  0.14933600168968986  0.7527876106755296  0.5577046672317698  1.0000
  C   C11       1.0  0.2718123813302906  0.3747595148092686  0.9013662576236592  1.0000
  C   C12       1.0  0.20307908055899926  0.37627045458988384  0.7848401434288106  1.0000
  H   H7        1.0  0.16122331647923382  0.4936753004990907  0.22117926113435926  1.0000
  H   H8        1.0  0.3185126071511358  0.45889088722077764  0.8785146360680964  1.0000
  H   H9        1.0  0.3156044568048211  0.2887771104155106  0.8938683921134896  1.0000
  H   H10       1.0  0.15948399853579764  0.46238654121973055  0.7922399262299811  1.0000
  H   H11       1.0  0.15618688443708884  0.29228151638250877  0.8077650039656254  1.0000
  H   H12       1.0  0.3179150798698499  0.4902308712220939  0.4438906685170454  1.0000
  Zn  Zn1       1.0  0.1362154629929015  0.3755164699581657  0.3431054304474688  1.0000
  Zn  Zn2       1.0  0.3386672375287718  0.37551292591708657  0.34310033272099205  1.0000
  C   C13       1.0  0.21607261253741883  0.3709674698383885  0.6178361708873334  1.0000
  C   C14       1.0  0.25881228615494734  0.38006351537707256  0.06836974257210882  1.0000
  C   C15       1.0  0.23774668729041704  0.6055326772399401  0.33750014540565965  1.0000
  C   C16       1.0  0.23713813713679244  0.14549679493899248  0.3487058456802008  1.0000
  O   O1        1.0  0.33127873264443686  0.3818367468628842  0.12441569380938589  1.0000
  O   O2        1.0  0.2972624128577833  0.36919059763604317  0.5617859159541487  1.0000
  O   O3        1.0  0.3147633449418876  0.5586049717879399  0.3354125942074946  1.0000
  O   O4        1.0  0.3137777402457731  0.19242238152891766  0.3507889027847022  1.0000
  O   O5        1.0  0.16110489118965998  0.5586070143489015  0.335416860377588  1.0000
  O   O6        1.0  0.14360396428447197  0.3691941532361002  0.5617901044916536  1.0000
  O   O7        1.0  0.17762042486710888  0.3818402554807814  0.12441807371264259  1.0000
  O   O8        1.0  0.1601194236967649  0.1924258813314521  0.35079139545312654  1.0000
