data_image0
_chemical_formula_structural       NC5NC3OH4C9H10C6OCH7Zn2C4O8
_chemical_formula_sum              "N2 C28 O10 H21 Zn2"
_cell_length_a       13.84702359539666
_cell_length_b       10.297183801781406
_cell_length_c       9.273891588657152
_cell_angle_alpha    86.04956984296379
_cell_angle_beta     89.66582561404928
_cell_angle_gamma    89.99848952151973

_space_group_name_H-M_alt    "P 1"
_space_group_IT_number       1

loop_
  _space_group_symop_operation_xyz
  'x, y, z'

loop_
  _atom_site_type_symbol
  _atom_site_label
  _atom_site_symmetry_multiplicity
  _atom_site_fract_x
  _atom_site_fract_y
  _atom_site_fract_z
  _atom_site_occupancy
  N   N1        1.0  0.9152824464437512  0.4087946016631597  0.4090222911446047  1.0000
  C   C1        1.0  0.8429027316832299  0.40149779962439064  0.47208276448642184  1.0000
  C   C2        1.0  0.7527628915114135  0.39241173965952214  0.5506063408350861  1.0000
  C   C3        1.0  0.6654621994261247  0.4011894446233881  0.47474692947052116  1.0000
  C   C4        1.0  0.5773206412983335  0.39251372265329487  0.5497245618564679  1.0000
  C   C5        1.0  0.4877614265389498  0.4015510581180504  0.4716221854357981  1.0000
  N   N2        1.0  0.41576742402669997  0.408816383856817  0.4088341013219068  1.0000
  C   C6        1.0  0.5764735807941874  0.37503410643424673  0.7007869833492195  1.0000
  C   C7        1.0  0.6633937900755336  0.36624819750652127  0.776714426478203  1.0000
  C   C8        1.0  0.7518489663333363  0.3748680203445028  0.70222147913325  1.0000
  O   O1        1.0  0.8384890529367212  0.3660671271100324  0.7782803263404523  1.0000
  H   H1        1.0  0.6661230092473626  0.414731253522169  0.35771676368471717  1.0000
  H   H2        1.0  0.508698362718601  0.36820584889105273  0.7597978304345567  1.0000
  H   H3        1.0  0.6619554911404587  0.35273325413064904  0.8935131805634162  1.0000
  H   H4        1.0  0.8396126872748293  0.35341839043443635  0.8875922536319406  1.0000
  C   C9        1.0  0.16553216436259174  0.02733158939162483  0.4091324085124398  1.0000
  C   C10       1.0  0.16328381128053662  0.035958620447236855  0.2574562501785378  1.0000
  C   C11       1.0  0.16213169087026125  0.9237620133360528  0.17974811886787823  1.0000
  C   C12       1.0  0.16327469510353154  0.8007827488583282  0.25686837599929513  1.0000
  C   C13       1.0  0.16552689926435615  0.7902694967629348  0.4087363821302026  1.0000
  C   C14       1.0  0.16664001519122906  0.9040119867313041  0.4838770390968481  1.0000
  C   C15       1.0  0.15969967105601346  0.9425249513876016  0.01569964364756427  1.0000
  C   C16       1.0  0.10345179032849083  0.8431534023796745  0.935482777339784  1.0000
  C   C17       1.0  0.2134905618279468  0.8434291846330397  0.9308624858409573  1.0000
  H   H5        1.0  0.1664076968291639  0.35154577200003856  0.46757809390802807  1.0000
  H   H6        1.0  0.16241602574130856  0.13071149575249308  0.19890088477295173  1.0000
  H   H7        1.0  0.16242866490323563  0.7127202739536521  0.19993908264257576  1.0000
  H   H8        1.0  0.16837418276944272  0.8966286082238736  0.6008983805241233  1.0000
  H   H9        1.0  0.1697678502516491  0.5631964733546024  0.6955722879677726  1.0000
  H   H10       1.0  0.1589188637479962  0.042811897475384164  0.9629715794976672  1.0000
  H   H11       1.0  0.07098101816172186  0.7600476514644676  0.001090526480700629  1.0000
  H   H12       1.0  0.0697626737977224  0.8831959953928743  0.833515129045448  1.0000
  H   H13       1.0  0.2478624314306845  0.7604917624568758  0.9936644084626955  1.0000
  H   H14       1.0  0.24411426961628307  0.8836305820994322  0.8261931505760761  1.0000
  C   C18       1.0  0.1671116166914102  0.4053601796259727  0.985660268994709  1.0000
  C   C19       1.0  0.24619797463994697  0.460232269368888  0.0541757477738658  1.0000
  C   C20       1.0  0.31980639407621414  0.5248043609352686  0.9743048058395993  1.0000
  C   C21       1.0  0.31459167034275226  0.5348298829270246  0.8228609503338192  1.0000
  C   C22       1.0  0.23753421907458197  0.4791713108808171  0.7530029189147864  1.0000
  C   C23       1.0  0.1639474083563328  0.412240855245984  0.8322085281986438  1.0000
  O   O2        1.0  0.3962553999189203  0.578076915461597  0.04945501436346623  1.0000
  C   C24       1.0  0.4757802516630001  0.6464465445347283  0.9823132510656537  1.0000
  H   H15       1.0  0.9374059124673743  0.3255636745823527  0.09680530674708512  1.0000
  H   H16       1.0  0.3702223571073307  0.5844374311274896  0.7578921460550361  1.0000
  H   H17       1.0  0.23675494427498703  0.4858663708102426  0.6359185607669384  1.0000
  H   H18       1.0  0.010764226403077618  0.3533676108420247  0.5568540423334247  1.0000
  H   H19       1.0  0.44985656887578385  0.7343528577340891  0.9178817940767892  1.0000
  H   H20       1.0  0.5160475598823546  0.581976915705273  0.911918903545813  1.0000
  H   H21       1.0  0.5252148115116706  0.6774992186236675  0.06712208848846757  1.0000
  Zn  Zn1       1.0  0.05971156713597892  0.40879747745033135  0.40897629665413443  1.0000
  Zn  Zn2       1.0  0.27133823537901725  0.40880297443378977  0.40889186471615857  1.0000
  C   C25       1.0  0.1645434089774056  0.4057651952113481  0.6721954857271066  1.0000
  C   C26       1.0  0.16650870395409023  0.4118368969535484  0.14567281534304755  1.0000
  C   C27       1.0  0.1655443788877513  0.6460113031356911  0.4030674402981469  1.0000
  C   C28       1.0  0.16550766155392638  0.17158922891964676  0.4148009384575486  1.0000
  O   O3        1.0  0.24661757866758907  0.41400696122902714  0.19934244909133803  1.0000
  O   O4        1.0  0.24505428031026333  0.4035983196543058  0.6184613556755323  1.0000
  O   O5        1.0  0.24586148793623194  0.5976001022837121  0.40113855459693226  1.0000
  O   O6        1.0  0.24581029923166486  0.22000518701210114  0.4166651421196251  1.0000
  O   O7        1.0  0.0852394310655642  0.5975952648714971  0.40120301927189783  1.0000
  O   O8        1.0  0.08443222371164727  0.4035950423511258  0.6185257426861872  1.0000
  O   O9        1.0  0.08599552861092222  0.41400362457189105  0.19940510315639148  1.0000
  O   O10       1.0  0.08518824876718689  0.22000184194196182  0.4167279042562222  1.0000
