data_image0
_chemical_formula_structural       NC9NC3OH6C7ONH7C7NC2NH7Zn2C4O8
_chemical_formula_sum              "N5 C32 O10 H20 Zn2"
_cell_length_a       15.78231758774541
_cell_length_b       10.297852080636378
_cell_length_c       9.27399911348925
_cell_angle_alpha    85.0628220767755
_cell_angle_beta     89.74395178918073
_cell_angle_gamma    89.61065309411966

_space_group_name_H-M_alt    "P 1"
_space_group_IT_number       1

loop_
  _space_group_symop_operation_xyz
  'x, y, z'

loop_
  _atom_site_type_symbol
  _atom_site_label
  _atom_site_symmetry_multiplicity
  _atom_site_fract_x
  _atom_site_fract_y
  _atom_site_fract_z
  _atom_site_occupancy
  N   N1        1.0  0.8030080822777584  0.42593836967854387  0.4106234750851263  1.0000
  C   C1        1.0  0.7544040983809401  0.3436510027641073  0.43738567063982997  1.0000
  C   C2        1.0  0.6940604665935933  0.24151237563032346  0.47060444985062405  1.0000
  C   C3        1.0  0.7136111789828388  0.11321048971372229  0.5122443353069908  1.0000
  C   C4        1.0  0.6368260943021434  0.05102972632906312  0.532507508472238  1.0000
  C   C5        1.0  0.5751280836017466  0.1459874476868812  0.5017351056404409  1.0000
  C   C6        1.0  0.48202147127271966  0.12843041993412863  0.5075264397641142  1.0000
  C   C7        1.0  0.4283706871866246  0.23607833143001034  0.47245865099726014  1.0000
  C   C8        1.0  0.340151357023019  0.22168192744999193  0.47721536439236706  1.0000
  C   C9        1.0  0.2858068513772766  0.3324619823375639  0.4411180952031272  1.0000
  N   N2        1.0  0.24212675601152803  0.42151486507003  0.4120991170083206  1.0000
  C   C10       1.0  0.3049013755548784  0.09947737552619929  0.5170943182414416  1.0000
  C   C11       1.0  0.3576214054647776  0.9920519852495256  0.5520944477300027  1.0000
  C   C12       1.0  0.4456547253975239  0.006052907957423632  0.5474669953233111  1.0000
  O   O1        1.0  0.6116848212812247  0.25852553652992216  0.4651574942316443  1.0000
  H   H1        1.0  0.7760340523428866  0.06994293230272162  0.5262302851692282  1.0000
  H   H2        1.0  0.6280047400437876  0.948789172236405  0.565706161106305  1.0000
  H   H3        1.0  0.455059678862179  0.3311751824480147  0.44142050629816265  1.0000
  H   H4        1.0  0.23677421429110992  0.08728438790551812  0.5211206483039377  1.0000
  H   H5        1.0  0.3302026674730461  0.897605261982031  0.5829208703394317  1.0000
  H   H6        1.0  0.4846665618882442  0.9209643620075334  0.5751987314795073  1.0000
  C   C13       1.0  0.022661757224807566  0.042288463148314914  0.41137021802245655  1.0000
  C   C14       1.0  0.011585871854162379  0.053120503236543  0.260552022490536  1.0000
  C   C15       1.0  0.005220936053805361  0.9415267027869152  0.18419545943605242  1.0000
  C   C16       1.0  0.011371835649324199  0.8178708408002712  0.26050151060514026  1.0000
  C   C17       1.0  0.022481093427241472  0.8051546176138702  0.41136481194107044  1.0000
  C   C18       1.0  0.02785272688298757  0.9178929629171542  0.4858469447055449  1.0000
  C   C19       1.0  0.9937328087675816  0.9555661938016303  0.024882575919600303  1.0000
  O   O2        1.0  0.01661802988442318  0.0590044279238822  0.95308522496404  1.0000
  N   N3        1.0  0.9561348077842061  0.854720215489454  0.9502370985618995  1.0000
  H   H7        1.0  0.04390230539198556  0.2290868671630253  0.6963411463836442  1.0000
  H   H8        1.0  0.007144801530681641  0.1487486725558922  0.20235672965265872  1.0000
  H   H9        1.0  0.009174830341236673  0.7311472891726415  0.2026057522704794  1.0000
  H   H10       1.0  0.036386935766883115  0.9087910471644539  0.602084394850501  1.0000
  H   H11       1.0  0.04483610709769392  0.5738536684730868  0.6962079637637081  1.0000
  H   H12       1.0  0.9522550074769788  0.8647155252563473  0.8374526709899892  1.0000
  H   H13       1.0  0.9270072000776136  0.7744424176134652  0.00559894202509592  1.0000
  C   C20       1.0  0.024034026654124352  0.4270311644236514  0.9875210478891003  1.0000
  C   C21       1.0  0.0905616355699832  0.36416347976309305  0.06622952338789734  1.0000
  C   C22       1.0  0.15148268429010803  0.2921049702424923  0.997782522254507  1.0000
  C   C23       1.0  0.14751362166648974  0.2804308985962136  0.8484728628342442  1.0000
  C   C24       1.0  0.08226070874911157  0.34547929557258145  0.7682100131995826  1.0000
  C   C25       1.0  0.0211088547394227  0.4204119181468562  0.8352139906940419  1.0000
  C   C26       1.0  0.212558588082564  0.20209074196491228  0.7779963737100086  1.0000
  N   N4        1.0  0.2835236659400675  0.15599126258409562  0.8462739471750504  1.0000
  C   C27       1.0  0.3245568346617207  0.09058534206799984  0.7470892421989221  1.0000
  C   C28       1.0  0.2782723406505634  0.09752505954845758  0.6213915888313575  1.0000
  N   N5        1.0  0.20783348632924892  0.16759290556343823  0.6409875148107607  1.0000
  H   H14       1.0  0.9338008877148927  0.5918908170171411  0.2537939865614467  1.0000
  H   H15       1.0  0.09439895554947592  0.36799019165928715  0.18239354631321203  1.0000
  H   H16       1.0  0.20118377395985576  0.2437534082368938  0.06267756255564882  1.0000
  H   H17       1.0  0.08016562317270609  0.34198582990856236  0.6520979985928799  1.0000
  H   H18       1.0  0.8888890643896002  0.49505450128630507  0.5490070768065207  1.0000
  H   H19       1.0  0.3845074304287741  0.04054427815243545  0.7656594529230896  1.0000
  H   H20       1.0  0.15989400086980388  0.18776407789086275  0.5651208923109463  1.0000
  Zn  Zn1       1.0  0.9297282144701796  0.4246583071652821  0.4110576415956324  1.0000
  Zn  Zn2       1.0  0.11540655712210168  0.42278423405950516  0.4116767493566884  1.0000
  C   C29       1.0  0.02166110909987906  0.4164884968166178  0.674981937906487  1.0000
  C   C30       1.0  0.023475689217219653  0.430955661753875  0.14775260145887015  1.0000
  C   C31       1.0  0.022530754107599416  0.6610016298059618  0.40561426924140265  1.0000
  C   C32       1.0  0.022605980954439664  0.18644096821763922  0.4171203468742062  1.0000
  O   O3        1.0  0.09375227078029241  0.4315558911630064  0.20176272277878882  1.0000
  O   O4        1.0  0.09231009497097625  0.41446491262748536  0.621441289573208  1.0000
  O   O5        1.0  0.09301138924610508  0.6119123576753491  0.40392498812846767  1.0000
  O   O6        1.0  0.09305091351696387  0.23410845689158746  0.4192789157917649  1.0000
  O   O7        1.0  0.9520837947124368  0.6133340849742019  0.40345547494169254  1.0000
  O   O8        1.0  0.9513825003294879  0.4158882011142322  0.6209716994173178  1.0000
  O   O9        1.0  0.9528246821939945  0.4329791479352798  0.2012913973110093  1.0000
  O   O10       1.0  0.9521233245559859  0.23553170352841835  0.4188076985368867  1.0000
