data_image0
_chemical_formula_structural       NC5NC3BrH3C6ClH5C6OCH7Zn2C4O8
_chemical_formula_sum              "N2 C25 Br1 H15 Cl1 O9 Zn2"
_cell_length_a       13.839083392302014
_cell_length_b       10.30297070629231
_cell_length_c       9.273891588657152
_cell_angle_alpha    86.0762958320409
_cell_angle_beta     89.68090098130043
_cell_angle_gamma    90.02428142920579

_space_group_name_H-M_alt    "P 1"
_space_group_IT_number       1

loop_
  _space_group_symop_operation_xyz
  'x, y, z'

loop_
  _atom_site_type_symbol
  _atom_site_label
  _atom_site_symmetry_multiplicity
  _atom_site_fract_x
  _atom_site_fract_y
  _atom_site_fract_z
  _atom_site_occupancy
  N   N1        1.0  0.9158162636626361  0.40847728428948193  0.41007369049727727  1.0000
  C   C1        1.0  0.8438056271034645  0.351197810709964  0.4125372746675313  1.0000
  C   C2        1.0  0.7540862609892038  0.27992233996402516  0.4156026674560407  1.0000
  C   C3        1.0  0.6665393984887135  0.34850481992588833  0.41265328822216163  1.0000
  C   C4        1.0  0.5784832777955329  0.28124783793973357  0.41554560461069245  1.0000
  C   C5        1.0  0.4887342916743171  0.3519466495608321  0.4125050519518889  1.0000
  N   N2        1.0  0.4165877542956317  0.4087829499732049  0.41006048893809727  1.0000
  C   C6        1.0  0.5779081471118106  0.1451280136598645  0.4213994051825629  1.0000
  C   C7        1.0  0.665009948765816  0.07643638809282118  0.42435338684794166  1.0000
  C   C8        1.0  0.7532620069651776  0.1430506350022791  0.4214887313085199  1.0000
  Br  Br1       1.0  0.8706509772270722  0.04396571257520976  0.42574994355512663  1.0000
  H   H1        1.0  0.6669299863763547  0.45398616180863116  0.4081168887968061  1.0000
  H   H2        1.0  0.510206209803947  0.09215874550611722  0.4236770681558964  1.0000
  H   H3        1.0  0.6638561967934115  0.9711793370631189  0.4288797632211305  1.0000
  C   C9        1.0  0.16620659230698218  0.027382709269844617  0.4100733202574067  1.0000
  C   C10       1.0  0.26587998340647157  0.024526048350422137  0.43783359826612234  1.0000
  C   C11       1.0  0.3153352601220667  0.906151804719345  0.4516074065255695  1.0000
  C   C12       1.0  0.2658799828885672  0.7894180791294256  0.43783353047724316  1.0000
  C   C13       1.0  0.16620660231058457  0.789867651759032  0.4100734027690028  1.0000
  C   C14       1.0  0.11685576965481759  0.9094437265692603  0.3963285509402805  1.0000
  Cl  Cl1       1.0  0.4398510737617627  0.9040866707487591  0.48628650842102283  1.0000
  H   H4        1.0  0.1286613746146943  0.35576187517530156  0.39961570275471847  1.0000
  H   H5        1.0  0.3055225138576745  0.1139151483815335  0.4488744117372312  1.0000
  H   H6        1.0  0.3055224760322728  0.6987139546889414  0.44887430817948343  1.0000
  H   H7        1.0  0.03998462581023653  0.9107185426613698  0.37491894566742845  1.0000
  H   H8        1.0  0.1286613688846847  0.4627339107066942  0.39961597489240086  1.0000
  C   C15       1.0  0.16778958279397016  0.40518774078311803  0.9867979618209054  1.0000
  C   C16       1.0  0.24692160019678555  0.4600721085638692  0.05536958396766911  1.0000
  C   C17       1.0  0.32057261053905406  0.5246476116621918  0.9755579046321389  1.0000
  C   C18       1.0  0.31535497121648093  0.5346642231676905  0.8241174293881652  1.0000
  C   C19       1.0  0.23825301656822284  0.47899499086843317  0.7542035559528332  1.0000
  C   C20       1.0  0.16462361088309252  0.41206253623770994  0.8333486860059542  1.0000
  O   O1        1.0  0.3970657548007596  0.5779318980255641  0.050762503826959904  1.0000
  C   C21       1.0  0.4766366110821194  0.6463060396850575  0.9836840436177906  1.0000
  H   H9        1.0  0.9379518155121256  0.3253083241898466  0.09782123983150592  1.0000
  H   H10       1.0  0.37101785232573725  0.5842738710015106  0.7591938322110003  1.0000
  H   H11       1.0  0.2374733422798032  0.48568563359350775  0.6371224005567249  1.0000
  H   H12       1.0  0.011352320985343887  0.35313736122392514  0.5579100647741466  1.0000
  H   H13       1.0  0.45069869941148544  0.7341454543805656  0.919289150705961  1.0000
  H   H14       1.0  0.5169265232406961  0.58189752962945  0.9132703142584782  1.0000
  H   H15       1.0  0.5260996886964591  0.6773683158815013  0.06852628952976891  1.0000
  Zn  Zn1       1.0  0.0603280703981095  0.40856207961954344  0.4100782109969723  1.0000
  Zn  Zn2       1.0  0.2720758954622222  0.40868760952851074  0.4100677974786633  1.0000
  C   C22       1.0  0.16521990759674754  0.40559105918421595  0.6733324905702998  1.0000
  C   C23       1.0  0.16718637001423198  0.41166027058118115  0.14681365926469914  1.0000
  C   C24       1.0  0.16622312448188947  0.6456950886615594  0.4043295031889551  1.0000
  C   C25       1.0  0.16618308058690112  0.17155468187947864  0.41581672349640364  1.0000
  O   O2        1.0  0.24734112237347272  0.41387448471815985  0.20051243721213077  1.0000
  O   O3        1.0  0.24577685650172065  0.4034711365635191  0.6196253940775378  1.0000
  O   O4        1.0  0.24658587796532097  0.5973581884256738  0.4024035785796647  1.0000
  O   O5        1.0  0.24653202905886398  0.21998744122275893  0.417734144638942  1.0000
  O   O6        1.0  0.08587186454235596  0.5972622478838101  0.40241186383266503  1.0000
  O   O7        1.0  0.08506284336183301  0.4033767552045295  0.6196336024761502  1.0000
  O   O8        1.0  0.08662711577886606  0.4137800440441659  0.20051891263661983  1.0000
  O   O9        1.0  0.08581802205615396  0.21989299214052588  0.4177407281304655  1.0000
