data_image0
_chemical_formula_structural       NC5OC5NC4H8C6ClH5C9H8Zn2C4O8
_chemical_formula_sum              "N2 C33 O9 H21 Cl1 Zn2"
_cell_length_a       19.189071930511275
_cell_length_b       10.30297070629231
_cell_length_c       9.275155815604963
_cell_angle_alpha    86.05280978821669
_cell_angle_beta     90.33561097957745
_cell_angle_gamma    89.98947815314023

_space_group_name_H-M_alt    "P 1"
_space_group_IT_number       1

loop_
  _space_group_symop_operation_xyz
  'x, y, z'

loop_
  _atom_site_type_symbol
  _atom_site_label
  _atom_site_symmetry_multiplicity
  _atom_site_fract_x
  _atom_site_fract_y
  _atom_site_fract_z
  _atom_site_occupancy
  N   N1        1.0  0.6513972517131166  0.40835125786662796  0.40976040673972824  1.0000
  C   C1        1.0  0.5968783695424473  0.45429731705890636  0.38946155147277645  1.0000
  C   C2        1.0  0.5290639118081574  0.5114465557120607  0.3642128259031199  1.0000
  C   C3        1.0  0.5190271458335349  0.6074670705904417  0.2516637941070363  1.0000
  C   C4        1.0  0.4531531454817018  0.6630543471836603  0.22727728608557363  1.0000
  C   C5        1.0  0.3966526014481533  0.6225059448489014  0.3139357517060975  1.0000
  O   O1        1.0  0.3315999824766823  0.681704167493751  0.2870357572752278  1.0000
  C   C6        1.0  0.2667096792458048  0.6223115979310032  0.31330960489868254  1.0000
  C   C7        1.0  0.21004721682355024  0.7001363689811511  0.34689201369221023  1.0000
  C   C8        1.0  0.14432496150441515  0.6448417924763847  0.37222257234960754  1.0000
  C   C9        1.0  0.13460263618565474  0.5109908706686235  0.36274332915455454  1.0000
  C   C10       1.0  0.0669441883873754  0.4540462460974526  0.3886517959767873  1.0000
  N   N2        1.0  0.012550784756719401  0.40826475042669164  0.40948153756236244  1.0000
  C   C11       1.0  0.1907854465374508  0.4328414243510251  0.3270330417317975  1.0000
  C   C12       1.0  0.25649898732103893  0.4881758045506425  0.3017509091459914  1.0000
  C   C13       1.0  0.40717693661120913  0.527401702354205  0.42828083799297856  1.0000
  C   C14       1.0  0.4730422293364066  0.4718108506510337  0.45273546196708764  1.0000
  H   H1        1.0  0.5620679897057557  0.6394365511480324  0.18297868823252908  1.0000
  H   H2        1.0  0.44585427350823553  0.737393554472678  0.1401945006548564  1.0000
  H   H3        1.0  0.21710265099443313  0.8037350795052249  0.3541912133065137  1.0000
  H   H4        1.0  0.101156066853316  0.7063974161812259  0.39897315452254173  1.0000
  H   H5        1.0  0.18371821948975872  0.3293822713521264  0.3179861070017258  1.0000
  H   H6        1.0  0.29894734707203735  0.4267994472124506  0.2712118501793286  1.0000
  H   H7        1.0  0.3648532239433584  0.4976299842901817  0.49968850985971375  1.0000
  H   H8        1.0  0.4803512861747065  0.3985285401408984  0.5410295612804703  1.0000
  C   C15       1.0  0.8319773707623261  0.027060620355294107  0.40962717764534173  1.0000
  C   C16       1.0  0.9040198836976129  0.0241155920073266  0.43733155366946463  1.0000
  C   C17       1.0  0.9397654554671631  0.9056975028539319  0.45107762486694636  1.0000
  C   C18       1.0  0.9040198829367768  0.7890076228119376  0.437331485888222  1.0000
  C   C19       1.0  0.8319773784483163  0.7895455628059732  0.40962726014266915  1.0000
  C   C20       1.0  0.79630729660609  0.9091653905908323  0.3959100868126837  1.0000
  Cl  Cl1       1.0  0.02976371838539072  0.9035219769476821  0.48568689187525577  1.0000
  H   H9        1.0  0.8048402154847157  0.3554730730210296  0.3991906175271922  1.0000
  H   H10       1.0  0.9326729415575552  0.11346954621016758  0.44835013357591597  1.0000
  H   H11       1.0  0.932672913686386  0.6982683525856938  0.44835003004948426  1.0000
  H   H12       1.0  0.7407459242633058  0.9105083583389411  0.37454359485067834  1.0000
  H   H13       1.0  0.8048402129071801  0.46244510845573733  0.3991908896383629  1.0000
  C   C21       1.0  0.8307005425659612  0.4050217724690756  0.9863969440085502  1.0000
  C   C22       1.0  0.7761844899842277  0.46829483505003333  0.05425391456536133  1.0000
  C   C23       1.0  0.7263361397933882  0.5401951216589493  0.97300764073175  1.0000
  C   C24       1.0  0.7300794044215768  0.5503279204354197  0.8224229530371652  1.0000
  C   C25       1.0  0.7831931004088039  0.4863576570006532  0.7528587005773538  1.0000
  C   C26       1.0  0.833254206965299  0.4115843346585268  0.8328573978203302  1.0000
  C   C27       1.0  0.6788223966654031  0.625261670943662  0.738865148691799  1.0000
  C   C28       1.0  0.6359038865013713  0.688008453263075  0.6688702470731722  1.0000
  C   C29       1.0  0.5838299919463743  0.7641410642269482  0.5839317918170299  1.0000
  H   H14       1.0  0.9924523082327579  0.30023654536059663  0.09922988295481616  1.0000
  H   H15       1.0  0.7730536397607892  0.46469675457330006  0.17104787020654721  1.0000
  H   H16       1.0  0.6852122563668087  0.589001806607085  0.027852428632724198  1.0000
  H   H17       1.0  0.7844806912669873  0.49246222342459633  0.6357114106130726  1.0000
  H   H18       1.0  0.9411813092199766  0.3363746560578939  0.5591916661028686  1.0000
  H   H19       1.0  0.5979910782612835  0.7678678463784382  0.46792186878184966  1.0000
  H   H20       1.0  0.5319279712727603  0.7179222376278929  0.5989981501686255  1.0000
  H   H21       1.0  0.5820663493083148  0.8643890792998628  0.620437884180427  1.0000
  Zn  Zn1       1.0  0.7556183938737943  0.40832289473025596  0.4096882477528936  1.0000
  Zn  Zn2       1.0  0.9083296955254001  0.40828262404221055  0.4095654804587827  1.0000
  C   C30       1.0  0.8327699654694618  0.4051718716027863  0.6728582833941403  1.0000
  C   C31       1.0  0.8311797919592092  0.4114352859243056  0.14639558493491747  1.0000
  C   C32       1.0  0.8319564751767398  0.6453751221677839  0.4038839755431918  1.0000
  C   C33       1.0  0.831993230374006  0.17123047616318043  0.4153699696663724  1.0000
  O   O2        1.0  0.8892937755485616  0.41356677317501944  0.2000460008869076  1.0000
  O   O3        1.0  0.8905603250830058  0.40300883720462677  0.6191142750249108  1.0000
  O   O4        1.0  0.8899026446686865  0.596976011645278  0.40191561902552886  1.0000
  O   O5        1.0  0.889951403526844  0.21959960719756055  0.417244548865088  1.0000
  O   O6        1.0  0.7739966337594552  0.5970059115900037  0.4020091793809022  1.0000
  O   O7        1.0  0.7746543139388044  0.40304029636057637  0.6192077585340916  1.0000
  O   O8        1.0  0.7733877592230716  0.4135981736551031  0.20013775160668112  1.0000
  O   O9        1.0  0.774045387524495  0.21963099922954882  0.41733640764037655  1.0000
