data_image0
_chemical_formula_structural       NC10NC2OCH8C7ONCOCH9C7OIH5Zn2C4O8
_chemical_formula_sum              "N3 C33 O12 H22 I1 Zn2"
_cell_length_a       19.251394670931877
_cell_length_b       10.298653850160019
_cell_length_c       10.297413674417342
_cell_angle_alpha    85.57108589449876
_cell_angle_beta     89.9652894728998
_cell_angle_gamma    90.10862512872751

_space_group_name_H-M_alt    "P 1"
_space_group_IT_number       1

loop_
  _space_group_symop_operation_xyz
  'x, y, z'

loop_
  _atom_site_type_symbol
  _atom_site_label
  _atom_site_symmetry_multiplicity
  _atom_site_fract_x
  _atom_site_fract_y
  _atom_site_fract_z
  _atom_site_occupancy
  N   N1        1.0  0.6541827014013799  0.4235328754608385  0.5664328985029874  1.0000
  C   C1        1.0  0.5941037955860224  0.41996237975298123  0.5650746790444814  1.0000
  C   C2        1.0  0.519325246152917  0.41553303767517824  0.5634412162085733  1.0000
  C   C3        1.0  0.4859379643035218  0.3857798183587615  0.4557748125472904  1.0000
  C   C4        1.0  0.40964079828337413  0.37917057169689233  0.45262683940490156  1.0000
  C   C5        1.0  0.3724165423866621  0.4157611340699765  0.5537583765398921  1.0000
  C   C6        1.0  0.2952668709340106  0.4169865740334184  0.5534699949310105  1.0000
  C   C7        1.0  0.2594036411696681  0.4028916683720323  0.6727584552114236  1.0000
  C   C8        1.0  0.18680674558973306  0.4045454130663819  0.6758552078677678  1.0000
  C   C9        1.0  0.14900205462595462  0.421244050086824  0.5598086196381173  1.0000
  C   C10       1.0  0.07425732780318353  0.4231052633538366  0.563110634454411  1.0000
  N   N2        1.0  0.0141686039208112  0.4246015020823129  0.5657651237257266  1.0000
  C   C11       1.0  0.18407865392134576  0.4368072953946338  0.4405774556264701  1.0000
  C   C12       1.0  0.256685474814778  0.4350933804844499  0.43717148697438746  1.0000
  O   O1        1.0  0.40752252986485893  0.4552656443102703  0.6634900494513212  1.0000
  C   C13       1.0  0.4797016531545714  0.43058281309010543  0.6875650796973494  1.0000
  H   H1        1.0  0.5146787066923229  0.3671604398842681  0.3686080372002143  1.0000
  H   H2        1.0  0.3849973437014045  0.34586180508383224  0.3668507203102982  1.0000
  H   H3        1.0  0.2875343222913873  0.38936655011700005  0.763838755400039  1.0000
  H   H4        1.0  0.1601923453159545  0.39279797843858066  0.7687749321506945  1.0000
  H   H5        1.0  0.15531488419592554  0.45096631897726563  0.35019641367688603  1.0000
  H   H6        1.0  0.28221406041435704  0.45039525587090307  0.34363514238519066  1.0000
  H   H7        1.0  0.501796902565859  0.5119578138646739  0.7391510841507285  1.0000
  H   H8        1.0  0.48483494030579694  0.33929565125716765  0.7516096260398721  1.0000
  C   C14       1.0  0.8340945073227446  0.042669075674122155  0.5659829887069916  1.0000
  C   C15       1.0  0.8202724616150576  0.05186558987571299  0.4315896667150694  1.0000
  C   C16       1.0  0.8128506121359295  0.9392976483495306  0.36386486795841777  1.0000
  C   C17       1.0  0.8204730607030566  0.8165742849408755  0.43193880889722114  1.0000
  C   C18       1.0  0.8342634565951723  0.8054552753055482  0.5662262744453168  1.0000
  C   C19       1.0  0.8408440336584511  0.9190906486371526  0.63251243462266  1.0000
  C   C20       1.0  0.7985169553965403  0.9487906271786248  0.22189428060639815  1.0000
  O   O2        1.0  0.8156552676916148  0.855824115062143  0.1557047542619825  1.0000
  N   N3        1.0  0.7639774118198135  0.060799907901414096  0.1598835284228428  1.0000
  C   C21       1.0  0.7608565960505802  0.0887111537997558  0.021209063089757674  1.0000
  O   O3        1.0  0.7949054195495343  0.021721308928418052  0.945971587960854  1.0000
  C   C22       1.0  0.7191594574372165  0.201778119729908  0.9652234420858687  1.0000
  H   H9        1.0  0.8612691834715283  0.23260275075621162  0.8192902904220711  1.0000
  H   H10       1.0  0.8165868160303632  0.14697824240913682  0.37952354848942704  1.0000
  H   H11       1.0  0.8150134387638137  0.7294592518633156  0.3801857157945112  1.0000
  H   H12       1.0  0.8514774616939741  0.9112470803123756  0.7360895649676373  1.0000
  H   H13       1.0  0.8401451126678757  0.4737085033010388  0.6177350331981155  1.0000
  H   H14       1.0  0.7377756319127471  0.12369623814879004  0.21784784104782573  1.0000
  H   H15       1.0  0.6673929722262577  0.201587731443889  0.012790243268748783  1.0000
  H   H16       1.0  0.7466302929891262  0.2937835710670187  0.9821521428077191  1.0000
  H   H17       1.0  0.7117334858946199  0.1960427080935354  0.8588519712743676  1.0000
  C   C23       1.0  0.8341247128304446  0.42411443260739556  0.18465230731212645  1.0000
  C   C24       1.0  0.7692259891336202  0.4864803931822841  0.1787215917555378  1.0000
  C   C25       1.0  0.7362649557314226  0.518154984272603  0.05859416871205659  1.0000
  C   C26       1.0  0.7693511095211514  0.48636001635227766  0.943533487730969  1.0000
  C   C27       1.0  0.8342332590565817  0.42400993606781534  0.947556977456839  1.0000
  C   C28       1.0  0.8662226138686205  0.3932690929420235  0.06857779737963288  1.0000
  C   C29       1.0  0.6676367209634071  0.5841047782972522  0.05486142584436803  1.0000
  O   O4        1.0  0.6389141059805651  0.611705802822855  0.15918751494311345  1.0000
  I   I1        1.0  0.6134447659831479  0.6361828234187958  0.8795280043801293  1.0000
  H   H18       1.0  0.9566587722417151  0.3063614080307755  0.40306407109379877  1.0000
  H   H19       1.0  0.7442862877448331  0.5104468569722993  0.26808752235941036  1.0000
  H   H20       1.0  0.7449097309270057  0.5098472770694003  0.8502797047877458  1.0000
  H   H21       1.0  0.9162493689323156  0.34519473758447106  0.07234249774968893  1.0000
  H   H22       1.0  0.8593512018076008  0.3998726184074677  0.6215585468933309  1.0000
  Zn  Zn1       1.0  0.7580668614752366  0.42383777613639634  0.5662476915140107  1.0000
  Zn  Zn2       1.0  0.9102844453661012  0.4242859592238717  0.5659609612532013  1.0000
  C   C30       1.0  0.8342100335503165  0.4188556178033598  0.8033499735148796  1.0000
  C   C31       1.0  0.8341429358833942  0.4292697611786002  0.32885880413818547  1.0000
  C   C32       1.0  0.8342272049517553  0.6612731681488051  0.561003970969056  1.0000
  C   C33       1.0  0.8341257122049802  0.1868506502487268  0.5712048755379857  1.0000
  O   O5        1.0  0.8919148302494564  0.43116435351248555  0.37714700736895557  1.0000
  O   O6        1.0  0.8919677630120774  0.41730020631633674  0.7548437744103869  1.0000
  O   O7        1.0  0.8919808506177088  0.6130554415308538  0.5591476646140023  1.0000
  O   O8        1.0  0.8919016906904768  0.23540912744930623  0.5728430198701828  1.0000
  O   O9        1.0  0.7764495642064698  0.6127146077594336  0.5593656329880441  1.0000
  O   O10       1.0  0.7764364769334218  0.41696093297781656  0.7550616740214662  1.0000
  O   O11       1.0  0.7763835439847986  0.43082503512856435  0.37736334522338466  1.0000
  O   O12       1.0  0.7763704044347756  0.2350697997625193  0.5730594551107839  1.0000
