data_image0
_chemical_formula_structural       NC9NC3OH6C7ONH7C8NH11Zn2C4O8
_chemical_formula_sum              "N4 C31 O10 H24 Zn2"
_cell_length_a       15.78231758774541
_cell_length_b       10.297852080636378
_cell_length_c       9.27565297233854
_cell_angle_alpha    85.93999439630132
_cell_angle_beta     90.52078220685846
_cell_angle_gamma    89.61065309411966

_space_group_name_H-M_alt    "P 1"
_space_group_IT_number       1

loop_
  _space_group_symop_operation_xyz
  'x, y, z'

loop_
  _atom_site_type_symbol
  _atom_site_label
  _atom_site_symmetry_multiplicity
  _atom_site_fract_x
  _atom_site_fract_y
  _atom_site_fract_z
  _atom_site_occupancy
  N   N1        1.0  0.790452201858471  0.4041053633114658  0.41275882593457536  1.0000
  C   C1        1.0  0.7420596360377819  0.322185624317024  0.4394850660840531  1.0000
  C   C2        1.0  0.6819784285488358  0.2205033181409533  0.47265921537406097  1.0000
  C   C3        1.0  0.7018580909472628  0.09277343254651749  0.5142431570289521  1.0000
  C   C4        1.0  0.6252330828596154  0.03087102107016859  0.5344791063215975  1.0000
  C   C5        1.0  0.563291973935409  0.12540602694400582  0.5037480466677673  1.0000
  C   C6        1.0  0.47023111243860194  0.10792855380453359  0.50953160004846  1.0000
  C   C7        1.0  0.4163032971044522  0.21509474479968785  0.4745109253740552  1.0000
  C   C8        1.0  0.3281215443956799  0.2007636830165707  0.47926124805441916  1.0000
  C   C9        1.0  0.27349187473228814  0.31104787559858604  0.4432124760797905  1.0000
  N   N2        1.0  0.2295825329831982  0.399702129355626  0.41423248531103823  1.0000
  C   C10       1.0  0.29318660179210454  0.0791069417843615  0.5190866239396559  1.0000
  C   C11       1.0  0.34618312845002297  0.9721623425839325  0.5540397302370081  1.0000
  C   C12       1.0  0.43417989207395674  0.9860996987320665  0.5494184948810108  1.0000
  O   O1        1.0  0.5995597529523727  0.23744165509868137  0.467219577820452  1.0000
  H   H1        1.0  0.7643914516029688  0.049697997850055575  0.5282103165608616  1.0000
  H   H2        1.0  0.616673993902162  0.9290865114597183  0.5676331560752319  1.0000
  H   H3        1.0  0.4427470912279045  0.30976522988097743  0.4435144808810505  1.0000
  H   H4        1.0  0.2250912480440508  0.0669692632037424  0.523107544568211  1.0000
  H   H5        1.0  0.31900791543174584  0.8781390768613025  0.5848247370921003  1.0000
  H   H6        1.0  0.4734108058931379  0.9013920991234473  0.5771129730398541  1.0000
  C   C13       1.0  0.01011177598351764  0.02046571466730063  0.41350456561173377  1.0000
  C   C14       1.0  0.9978444452892082  0.029225989776178865  0.26288899655434195  1.0000
  C   C15       1.0  0.9908763019669634  0.9165832916605772  0.18663501967073914  1.0000
  C   C16       1.0  0.997630010046645  0.793975633466367  0.2628385525324106  1.0000
  C   C17       1.0  0.009931069478569024  0.7833317948703967  0.4134991667934982  1.0000
  C   C18       1.0  0.01589110268585547  0.8970932890961598  0.4878812317118864  1.0000
  C   C19       1.0  0.9781296223595454  0.9284343275511305  0.027536175367659288  1.0000
  O   O2        1.0  0.00044765317321560034  0.030886293161183298  0.9558352852141483  1.0000
  N   N3        1.0  0.9399419312222937  0.8265629564784116  0.9529909853119191  1.0000
  H   H7        1.0  0.03360355967820449  0.21117871789485343  0.6980926313192926  1.0000
  H   H8        1.0  0.9929436392603209  0.12405473983952044  0.2047718899524176  1.0000
  H   H9        1.0  0.9949756353191408  0.7064567772393976  0.20502057800467102  1.0000
  H   H10       1.0  0.02534357322857427  0.8895881082576386  0.6039625151247856  1.0000
  H   H11       1.0  0.03453630925748194  0.5559436896969642  0.6979596276321747  1.0000
  H   H12       1.0  0.9351711477128163  0.8350089649396141  0.8403580852852098  1.0000
  H   H13       1.0  0.9112516753171266  0.7470456552260217  0.008278449320270996  1.0000
  C   C20       1.0  0.008135688738009952  0.3993860689498767  0.9902248431022067  1.0000
  C   C21       1.0  0.9531550303669138  0.484903099298641  0.05618693670677222  1.0000
  C   C22       1.0  0.9048630385298156  0.5779326444524195  0.9733242560256352  1.0000
  C   C23       1.0  0.9104074312830698  0.5842052621077425  0.8225574464509839  1.0000
  C   C24       1.0  0.9635224124329613  0.4987647589546645  0.7551810142147605  1.0000
  C   C25       1.0  0.011907214333055856  0.40441144836068466  0.8367789321715138  1.0000
  C   C26       1.0  0.8453704924026076  0.6673931084852145  0.0456677822760585  1.0000
  C   C27       1.0  0.7582619151434582  0.604801735332977  0.06616321287481731  1.0000
  N   N4        1.0  0.7007712073589348  0.6931582496843517  0.13417762931058408  1.0000
  H   H14       1.0  0.07028939285338565  0.2057770539067747  0.2870418600111959  1.0000
  H   H15       1.0  0.9491253483349525  0.481329659808279  0.17300096690343314  1.0000
  H   H16       1.0  0.8728182862160624  0.654546286021044  0.7568476687808691  1.0000
  H   H17       1.0  0.9650509106859776  0.5043280171818528  0.6381662353268999  1.0000
  H   H18       1.0  0.12813768886596277  0.2842777839414492  0.5666895848720639  1.0000
  H   H19       1.0  0.8719012545152351  0.6899505784439117  0.15247097534999265  1.0000
  H   H20       1.0  0.8385646691311405  0.761239113321615  0.9793348628943401  1.0000
  H   H21       1.0  0.7317755022643813  0.5832874656338992  0.9589430077858978  1.0000
  H   H22       1.0  0.7642653935857905  0.511711075891748  0.13437661065333176  1.0000
  H   H23       1.0  0.6409331337810786  0.650139109040468  0.13837992136932356  1.0000
  H   H24       1.0  0.7206114539394864  0.6994606472482255  0.2413640979266989  1.0000
  Zn  Zn1       1.0  0.9171757639132955  0.40283126487282017  0.41319240913595845  1.0000
  Zn  Zn2       1.0  0.10285899744091233  0.4009656963494863  0.41381068511658814  1.0000
  C   C28       1.0  0.011193628247956543  0.39828693958163175  0.6767621192543763  1.0000
  C   C29       1.0  0.00884316100351445  0.40551164102510656  0.1502411232118113  1.0000
  C   C30       1.0  0.009935301573974698  0.6390998127943532  0.4077563500329305  1.0000
  C   C31       1.0  0.010101425028753887  0.16469720831979798  0.4192469690803944  1.0000
  O   O3        1.0  0.07954641592818112  0.40685379867098925  0.20417868113556104  1.0000
  O   O4        1.0  0.08141964953671249  0.39552787622967434  0.6232934035733708  1.0000
  O   O5        1.0  0.08040259159801821  0.589987335284326  0.40606933849413496  1.0000
  O   O6        1.0  0.08056341002207776  0.21239434890327336  0.42140263792871235  1.0000
  O   O7        1.0  0.9394712879675212  0.5914026129570292  0.4056004561052651  1.0000
  O   O8        1.0  0.9404883451903486  0.3969447140329599  0.6228244443187956  1.0000
  O   O9        1.0  0.9386151039282552  0.4082705809221041  0.2037079889005129  1.0000
  O   O10       1.0  0.9396320985023411  0.2138111225054489  0.42093205376118004  1.0000
