data_image0
_chemical_formula_structural       NC10NC2SCH8C7OClH5C7OIH5Zn2C4O8
_chemical_formula_sum              "N2 C31 S1 H18 O10 Cl1 I1 Zn2"
_cell_length_a       19.276177435061857
_cell_length_b       10.29851198555357
_cell_length_c       10.297413674417346
_cell_angle_alpha    85.55149777868054
_cell_angle_beta     90.23955368145704
_cell_angle_gamma    89.88801624932663

_space_group_name_H-M_alt    "P 1"
_space_group_IT_number       1

loop_
  _space_group_symop_operation_xyz
  'x, y, z'

loop_
  _atom_site_type_symbol
  _atom_site_label
  _atom_site_symmetry_multiplicity
  _atom_site_fract_x
  _atom_site_fract_y
  _atom_site_fract_z
  _atom_site_occupancy
  N   N1        1.0  0.6530604972604747  0.41886313085836546  0.5721635327387294  1.0000
  C   C1        1.0  0.5930774966818897  0.41971629189641524  0.5762826268317887  1.0000
  C   C2        1.0  0.5183822587333038  0.42083836903294203  0.5814167996506245  1.0000
  C   C3        1.0  0.48349001208955406  0.3079301694408145  0.5912464359662017  1.0000
  C   C4        1.0  0.4069995528515772  0.3035986796992995  0.5986930512049442  1.0000
  C   C5        1.0  0.3693071500141865  0.4058726362132845  0.6318630487495974  1.0000
  C   C6        1.0  0.2924976254631213  0.40717008381342934  0.6195047601235871  1.0000
  C   C7        1.0  0.2592519953633072  0.3508849156908233  0.5155448031515435  1.0000
  C   C8        1.0  0.1869505495900603  0.3535030947966998  0.5042039131704525  1.0000
  C   C9        1.0  0.1468661807386953  0.41256059987797733  0.5961728457348796  1.0000
  C   C10       1.0  0.072428918161348  0.4152044787574325  0.5843907041846532  1.0000
  N   N2        1.0  0.012586915494112198  0.41732989737838644  0.5749187699138705  1.0000
  C   C11       1.0  0.1793657368443464  0.4692972752873803  0.6994692942519949  1.0000
  C   C12       1.0  0.2516665302329296  0.46689916982038504  0.7109748423931059  1.0000
  S   S1        1.0  0.4127310422771615  0.5427484786808958  0.6963903715575164  1.0000
  C   C13       1.0  0.48029288757487  0.5488855641882813  0.5732342057144784  1.0000
  H   H1        1.0  0.5113057745120991  0.21643892972557688  0.5902377928135785  1.0000
  H   H2        1.0  0.38160126471501327  0.21560650021300384  0.5724725818117888  1.0000
  H   H3        1.0  0.2891212253809174  0.30650606854037177  0.441888983415633  1.0000
  H   H4        1.0  0.16235092633519146  0.309888237800447  0.4234273365616145  1.0000
  H   H5        1.0  0.148828444087945  0.5152635294477501  0.7712629249377223  1.0000
  H   H6        1.0  0.2754812639535651  0.5104521441567125  0.7924458747343204  1.0000
  H   H7        1.0  0.456483221120335  0.567430866924429  0.4750726609495235  1.0000
  H   H8        1.0  0.5161872155852059  0.6302373929712142  0.5899788163041633  1.0000
  C   C14       1.0  0.8328197383391903  0.03668331746591181  0.5735557998578485  1.0000
  C   C15       1.0  0.893625426534138  0.0412728160964324  0.4987301336315142  1.0000
  C   C16       1.0  0.9245714272857186  0.9264973543592306  0.4606489607450596  1.0000
  C   C17       1.0  0.8936570838477369  0.8060154849322679  0.49869115512676293  1.0000
  C   C18       1.0  0.8328343515627982  0.7994996661264591  0.5735378006282601  1.0000
  C   C19       1.0  0.8027740106006298  0.9153325713918378  0.610529204575338  1.0000
  C   C20       1.0  0.988884921490278  0.9335588314363666  0.3815069390936585  1.0000
  O   O1        1.0  0.015979982432905885  0.04224117374824555  0.34816308502804594  1.0000
  Cl  Cl1       1.0  0.029725403087389024  0.7931769997927673  0.33125291493545617  1.0000
  H   H9        1.0  0.8095614288238837  0.3624207748550161  0.6021764256532913  1.0000
  H   H10       1.0  0.9169849725374337  0.13460769344634138  0.46998444045702653  1.0000
  H   H11       1.0  0.9167604587493642  0.7167863904731692  0.47026085105684867  1.0000
  H   H12       1.0  0.755867331329031  0.9110239879190597  0.6682516888199842  1.0000
  H   H13       1.0  0.8095079443754046  0.469489813524249  0.6022396335254262  1.0000
  C   C21       1.0  0.8327728314668656  0.4181441370825895  0.19209396172723392  1.0000
  C   C22       1.0  0.7679443003436939  0.4809817328604722  0.1855245784189221  1.0000
  C   C23       1.0  0.7350189166560066  0.5128958599932333  0.06507278617617751  1.0000
  C   C24       1.0  0.7680692854328244  0.48086044674368694  0.9503377057510035  1.0000
  C   C25       1.0  0.8328812603302391  0.41803885170285937  0.9549997001386346  1.0000
  C   C26       1.0  0.8648360163690171  0.3870655339647668  0.07633532698377166  1.0000
  C   C27       1.0  0.6664649082183565  0.5793443925022468  0.060664673516310774  1.0000
  O   O2        1.0  0.6377733589126419  0.6071541514041381  0.16470810384544207  1.0000
  I   I1        1.0  0.6123315654784244  0.6318162641109337  0.8847979491673517  1.0000
  H   H14       1.0  0.9551743618078349  0.29950062690881674  0.4117115824311421  1.0000
  H   H15       1.0  0.7430315729972617  0.5051294396802595  0.27464507762367973  1.0000
  H   H16       1.0  0.743654341975859  0.5045253290411273  0.8568433955118038  1.0000
  H   H17       1.0  0.9148086639409169  0.3386276217090225  0.08059234018465178  1.0000
  H   H18       1.0  0.857972036171063  0.3937189957060616  0.6292484548972235  1.0000
  Zn  Zn1       1.0  0.7568120662638504  0.41841719593255505  0.5729661429100553  1.0000
  Zn  Zn2       1.0  0.9088353691184158  0.41776520768516057  0.5741268237887475  1.0000
  C   C28       1.0  0.832859105921737  0.41288448941533734  0.8107942514756239  1.0000
  C   C29       1.0  0.8327899895997561  0.4232995458748465  0.3362988553536437  1.0000
  C   C30       1.0  0.8328272731642543  0.6553118812975307  0.5683648764641014  1.0000
  C   C31       1.0  0.8328217704622832  0.18087059372191464  0.5787282992597664  1.0000
  O   O3        1.0  0.8904877990746404  0.42477665561979483  0.3851358074607596  1.0000
  O   O4        1.0  0.8905434656617914  0.4109115558919931  0.7628378553938991  1.0000
  O   O5        1.0  0.8905169827830411  0.606674743898726  0.5670744138743408  1.0000
  O   O6        1.0  0.8905142300644724  0.22901347714028164  0.580899151187939  1.0000
  O   O7        1.0  0.7751331534397008  0.6071689267013405  0.5661938151079479  1.0000
  O   O8        1.0  0.7751596363353132  0.41140729918925234  0.76195718732999  1.0000
  O   O9        1.0  0.775103969571499  0.42527235387114554  0.38425357765395374  1.0000
  O   O10       1.0  0.7751304005721561  0.2295091660883193  0.5800170187705963  1.0000
