data_image0
_chemical_formula_structural       NC5NC3BrH3C7NH5C7OH5Zn2C4O8
_chemical_formula_sum              "N3 C26 Br1 H13 O9 Zn2"
_cell_length_a       13.839083392302014
_cell_length_b       9.275154477615127
_cell_length_c       9.274074313596557
_cell_angle_alpha    86.3499061385644
_cell_angle_beta     90.2343589418284
_cell_angle_gamma    89.45968127068964

_space_group_name_H-M_alt    "P 1"
_space_group_IT_number       1

loop_
  _space_group_symop_operation_xyz
  'x, y, z'

loop_
  _atom_site_type_symbol
  _atom_site_label
  _atom_site_symmetry_multiplicity
  _atom_site_fract_x
  _atom_site_fract_y
  _atom_site_fract_z
  _atom_site_occupancy
  N   N1        1.0  0.8952189804444561  0.5629575955721289  0.416382264192819  1.0000
  C   C1        1.0  0.82364371222388  0.49934640806218367  0.41859412745421004  1.0000
  C   C2        1.0  0.7344660938404584  0.42019209573497535  0.42134629240642424  1.0000
  C   C3        1.0  0.6463979536416357  0.4963557323023872  0.4186983063517869  1.0000
  C   C4        1.0  0.5588530354912733  0.42166411516155144  0.4212950546109877  1.0000
  C   C5        1.0  0.46856668494125897  0.5001780240825122  0.4185651955939511  1.0000
  N   N2        1.0  0.3959881474264867  0.5632970497153216  0.41637040591917174  1.0000
  C   C6        1.0  0.5593125163208226  0.2704975077059768  0.4265506617877466  1.0000
  C   C7        1.0  0.6469364246697803  0.19421266042726912  0.42920277062873247  1.0000
  C   C8        1.0  0.7346821657196241  0.26819049411025264  0.4266308586477653  1.0000
  Br  Br1       1.0  0.8528242553765304  0.15815265323771333  0.43045663140270385  1.0000
  H   H1        1.0  0.6459868038914967  0.6134970573451035  0.4146254561887526  1.0000
  H   H2        1.0  0.49201318296299884  0.2116729783804694  0.42859554556313273  1.0000
  H   H3        1.0  0.646582703116989  0.0773204192100514  0.4332665834395247  1.0000
  C   C9        1.0  0.14839990512971646  0.13972354501494474  0.4147084061611784  1.0000
  C   C10       1.0  0.12153772825767371  0.22163759411725795  0.28762774146466863  1.0000
  C   C11       1.0  0.08683392445833493  0.15439486465579044  0.16727894787752254  1.0000
  C   C12       1.0  0.07842238946147373  0.004320778424094838  0.17259345479143187  1.0000
  C   C13       1.0  0.1061724059369471  0.9211712356333353  0.29677738150301214  1.0000
  C   C14       1.0  0.14281657873709358  0.9865201288451501  0.41805675481300164  1.0000
  C   C15       1.0  0.058682119195044846  0.23987482440896835  0.03866665260067648  1.0000
  N   N3        1.0  0.03605586929627003  0.3085851345196715  0.9352953109273208  1.0000
  H   H4        1.0  0.16807981109548956  0.21987909206556092  0.768500327474162  1.0000
  H   H5        1.0  0.12547250432548718  0.3385577028047544  0.28335106405534494  1.0000
  H   H6        1.0  0.05123546608362739  0.9512682700588403  0.08009786057679813  1.0000
  H   H7        1.0  0.10109808263611542  0.8046989556054873  0.29665065710757355  1.0000
  H   H8        1.0  0.16016493186296676  0.690087411812856  0.655107307271025  1.0000
  C   C16       1.0  0.14447865571951707  0.558968376559948  0.9931249887302261  1.0000
  C   C17       1.0  0.059947392486699995  0.6014782380311461  0.06318414485954206  1.0000
  C   C18       1.0  0.9800979759307634  0.6555787271731566  0.9842179214963847  1.0000
  C   C19       1.0  0.9829108519711833  0.6686085271191802  0.8329893644903865  1.0000
  C   C20       1.0  0.06614892823942808  0.6243570625931283  0.7617834702972024  1.0000
  C   C21       1.0  0.146737790282631  0.5672752290908285  0.8396401798158647  1.0000
  C   C22       1.0  0.8994097845502258  0.7266715684358607  0.7478304292416524  1.0000
  O   O1        1.0  0.8234248517355575  0.766793129316304  0.808697341801818  1.0000
  H   H9        1.0  0.38081777590246046  0.5223941163913313  0.09976273174516614  1.0000
  H   H10       1.0  0.9164800637280299  0.6885424276192247  0.04175158298424608  1.0000
  H   H11       1.0  0.0672225349923652  0.6313451197753182  0.6446544092229831  1.0000
  H   H12       1.0  0.3056367206620514  0.5374154598650325  0.5620521131683662  1.0000
  H   H13       1.0  0.9027832886621493  0.7354256240883141  0.6309954359013816  1.0000
  Zn  Zn1       1.0  0.039730195497117204  0.5630517707207585  0.41638715670005233  1.0000
  Zn  Zn2       1.0  0.25147703400321353  0.563191172815769  0.41637729522639627  1.0000
  C   C23       1.0  0.14634650723994502  0.5599611631174333  0.6796079286841012  1.0000
  C   C24       1.0  0.14486302291177555  0.5662836025596429  0.15315667179511205  1.0000
  C   C25       1.0  0.14385163990264613  0.8264011640393176  0.4116802099279533  1.0000
  C   C26       1.0  0.1473578296215079  0.2998418700633931  0.42108446054867726  1.0000
  O   O2        1.0  0.2253488832123192  0.5687852713733648  0.2068609992892254  1.0000
  O   O3        1.0  0.22657160394167586  0.5575642054881551  0.6258956973503755  1.0000
  O   O4        1.0  0.22455588776622795  0.7727178898199898  0.40954217480011157  1.0000
  O   O5        1.0  0.22736452677649277  0.3536315962476648  0.4232144138135683  1.0000
  O   O6        1.0  0.06384263046500326  0.7726113472427865  0.40955003810867074  1.0000
  O   O7        1.0  0.06585833500918348  0.5574593944392416  0.6259034906573075  1.0000
  O   O8        1.0  0.06463561005063467  0.5686803930753157  0.20686705949625897  1.0000
  O   O9        1.0  0.06665125396724858  0.3535267086974052  0.42322058204231366  1.0000
