data_image0
_chemical_formula_structural       NC9NC3OH6C7F3H5C7OCH10Zn2C4O8
_chemical_formula_sum              "N2 C31 O10 H21 F3 Zn2"
_cell_length_a       15.78231758774541
_cell_length_b       9.272718291674593
_cell_length_c       10.300835455316063
_cell_angle_alpha    86.00164586726821
_cell_angle_beta     90.10164199731037
_cell_angle_gamma    89.20559360488726

_space_group_name_H-M_alt    "P 1"
_space_group_IT_number       1

loop_
  _space_group_symop_operation_xyz
  'x, y, z'

loop_
  _atom_site_type_symbol
  _atom_site_label
  _atom_site_symmetry_multiplicity
  _atom_site_fract_x
  _atom_site_fract_y
  _atom_site_fract_z
  _atom_site_occupancy
  N   N1        1.0  0.7907344226442137  0.5687716310326629  0.5807423378151848  1.0000
  C   C1        1.0  0.7426051542208643  0.4776675461084834  0.6042014137692595  1.0000
  C   C2        1.0  0.6828507611402357  0.36458523193493586  0.6333201795882779  1.0000
  C   C3        1.0  0.7031413317909395  0.22253560727258612  0.6698186430578619  1.0000
  C   C4        1.0  0.6267151122848137  0.15369281271076884  0.6875817681358174  1.0000
  C   C5        1.0  0.5644696884076925  0.25882580026578395  0.6606100025503896  1.0000
  C   C6        1.0  0.4714646547897136  0.23938833517399297  0.6656884234303522  1.0000
  C   C7        1.0  0.4171926431629538  0.3585697226362637  0.6349475372339353  1.0000
  C   C8        1.0  0.3290566340086822  0.34263146862819305  0.6391188803204721  1.0000
  C   C9        1.0  0.274072792600996  0.46528049881155886  0.6074753267944717  1.0000
  N   N2        1.0  0.2298787485714813  0.5638744949567027  0.5820367049683315  1.0000
  C   C10       1.0  0.29451213390157494  0.2073344427696331  0.674078894712465  1.0000
  C   C11       1.0  0.34785212456749776  0.08839946030661272  0.704760581489309  1.0000
  C   C12       1.0  0.43580440731914594  0.103899864668765  0.7007025601678831  1.0000
  O   O1        1.0  0.6003772769580706  0.3834220378486717  0.6285475086631211  1.0000
  H   H1        1.0  0.7658135066624765  0.17463136818217764  0.6820763915899137  1.0000
  H   H2        1.0  0.6184833931828578  0.04049717964985633  0.7166816585549558  1.0000
  H   H3        1.0  0.44333262619050523  0.46385479798637297  0.6077377261705437  1.0000
  H   H4        1.0  0.2264555326357873  0.1938355694747082  0.6776096832472642  1.0000
  H   H5        1.0  0.3209786436254193  0.9838341684528235  0.7317847957004371  1.0000
  H   H6        1.0  0.47530732968608547  0.009694984330819837  0.725012865572134  1.0000
  C   C13       1.0  0.012155404323768599  0.14291907947106397  0.5785266165941789  1.0000
  C   C14       1.0  0.9604856516848028  0.22478618213080281  0.4886389999575953  1.0000
  C   C15       1.0  0.9028222914253297  0.15787828994166797  0.40897911419973004  1.0000
  C   C16       1.0  0.899073848573341  0.0066332550130703246  0.416559420539316  1.0000
  C   C17       1.0  0.9508063790636646  0.923805706812563  0.5036374550269258  1.0000
  C   C18       1.0  0.008465887545575854  0.9897158771617344  0.584263628629792  1.0000
  C   C19       1.0  0.8496095951094442  0.24735792804791212  0.31082622237984525  1.0000
  F   F1        1.0  0.8278457770335718  0.379031281449808  0.3579528146524329  1.0000
  F   F2        1.0  0.7756371647425641  0.1767758342170487  0.28347965363831884  1.0000
  F   F3        1.0  0.895297554164413  0.2716030657192816  0.19721995138286139  1.0000
  H   H7        1.0  0.1128234588794365  0.2205574620612005  0.8590511393026867  1.0000
  H   H8        1.0  0.963866728587483  0.34171584542912425  0.4826054878103274  1.0000
  H   H9        1.0  0.8567071277984116  0.9519979881396493  0.35399371805842117  1.0000
  H   H10       1.0  0.9473483162237708  0.8070756027558099  0.5053742901687979  1.0000
  H   H11       1.0  0.19040222936108642  0.8718111110432863  0.7410827333689198  1.0000
  C   C20       1.0  0.010233978975430874  0.5662447765008669  0.20007783691003378  1.0000
  C   C21       1.0  0.08768799915465264  0.6391430636732585  0.1948704541456443  1.0000
  C   C22       1.0  0.1262004061024371  0.6773914885860204  0.07503331997399831  1.0000
  C   C23       1.0  0.08788954533846755  0.6393324038298682  0.9595735637477353  1.0000
  C   C24       1.0  0.010387344091524973  0.5663901688059197  0.9627123913522392  1.0000
  C   C25       1.0  0.9719188500218835  0.5305851901016907  0.08340213780955463  1.0000
  C   C26       1.0  0.210270606731093  0.7516019505789828  0.07082596108486916  1.0000
  O   O2        1.0  0.27548738221019176  0.6456396601897354  0.07781190864197818  1.0000
  C   C27       1.0  0.3547802793989081  0.7139548215227185  0.0739754566756552  1.0000
  H   H12       1.0  0.9810483125141064  0.5368254290595831  0.5295662927635465  1.0000
  H   H13       1.0  0.11838739616918253  0.666445930729967  0.28388710202060974  1.0000
  H   H14       1.0  0.11872717121175053  0.666766568178069  0.8674166910052041  1.0000
  H   H15       1.0  0.9121870716519406  0.47435191040961056  0.08665589939286877  1.0000
  H   H16       1.0  0.864661925676142  0.4273483055503105  0.761475232077681  1.0000
  H   H17       1.0  0.21444813851327738  0.8219291085990619  0.15399861063608777  1.0000
  H   H18       1.0  0.21464437949144288  0.8219489111348777  0.9788852904035958  1.0000
  H   H19       1.0  0.4053448170945535  0.6294383005957702  0.07953216564883969  1.0000
  H   H20       1.0  0.3630602137400574  0.7808077821611599  0.15859717683097574  1.0000
  H   H21       1.0  0.36326685303265704  0.7808656166383505  0.9810871780606218  1.0000
  Zn  Zn1       1.0  0.9174620037090276  0.5673545734412797  0.5811233305749477  1.0000
  Zn  Zn2       1.0  0.10315119242068982  0.5652797868127462  0.5816662473644052  1.0000
  C   C28       1.0  0.010381476136594344  0.5606187933276663  0.8185191901041475  1.0000
  C   C29       1.0  0.010233739812511404  0.5720173635246388  0.34427053353814685  1.0000
  C   C30       1.0  0.00915789461744909  0.8296523245634513  0.5780046937676677  1.0000
  C   C31       1.0  0.011457265530402825  0.30298210072866494  0.5847850871825733  1.0000
  O   O3        1.0  0.08070176634257015  0.5731610355227985  0.39286891121954465  1.0000
  O   O4        1.0  0.0808472519473273  0.5578993185055516  0.7703324925391772  1.0000
  O   O5        1.0  0.07985824472439512  0.7751473082433986  0.5761153424469265  1.0000
  O   O6        1.0  0.08169071013784451  0.3559130567885751  0.5870859638349324  1.0000
  O   O7        1.0  0.9389224226252575  0.7767213041750414  0.5757036139123299  1.0000
  O   O8        1.0  0.9399114222828283  0.5594750467069737  0.7699207065045441  1.0000
  O   O9        1.0  0.9397659366394228  0.5747367131817791  0.3924555636554554  1.0000
  O   O10       1.0  0.94075488049574  0.3574887241535232  0.5866727135556162  1.0000
