data_image0
_chemical_formula_structural       NC5NC3F3CH3C6ClH5C6NH7Zn2C4O8
_chemical_formula_sum              "N3 C25 F3 H15 Cl1 Zn2 O8"
_cell_length_a       13.85151926108384
_cell_length_b       10.30297070629231
_cell_length_c       9.274774538082514
_cell_angle_alpha    85.06361778746081
_cell_angle_beta     90.34967317275357
_cell_angle_gamma    89.9983157295073

_space_group_name_H-M_alt    "P 1"
_space_group_IT_number       1

loop_
  _space_group_symop_operation_xyz
  'x, y, z'

loop_
  _atom_site_type_symbol
  _atom_site_label
  _atom_site_symmetry_multiplicity
  _atom_site_fract_x
  _atom_site_fract_y
  _atom_site_fract_z
  _atom_site_occupancy
  N   N1        1.0  0.9025453803609466  0.433306106280428  0.4080658528804457  1.0000
  C   C1        1.0  0.8304716152462195  0.4246420370961918  0.4706045886763594  1.0000
  C   C2        1.0  0.7408061990748509  0.41386274397957296  0.5484117226200393  1.0000
  C   C3        1.0  0.6529709631397507  0.42275662421442445  0.47279980700363405  1.0000
  C   C4        1.0  0.565754209489169  0.41386273230272175  0.548411702538206  1.0000
  C   C5        1.0  0.47545236351148207  0.42464205089687534  0.4706046828527503  1.0000
  N   N2        1.0  0.4028671951798702  0.43330607134436344  0.4080659584548192  1.0000
  C   C6        1.0  0.5663641690123262  0.3951751681671065  0.6998117518222489  1.0000
  C   C7        1.0  0.6542137055889468  0.38339980707934107  0.7766871988222899  1.0000
  C   C8        1.0  0.6548810200716546  0.368097946389907  0.9398965688286982  1.0000
  F   F1        1.0  0.7360280183541384  0.30034220045915716  0.9915571836251821  1.0000
  F   F2        1.0  0.5741592041002774  0.30034217213349  0.9915572830363745  1.0000
  F   F3        1.0  0.655089940454189  0.48995723534057234  0.9916774011907451  1.0000
  C   C9        1.0  0.7414344959353795  0.3951750822625763  0.6998117714607281  1.0000
  H   H1        1.0  0.652491623361161  0.43736941739464136  0.35558052091112624  1.0000
  H   H2        1.0  0.4984768978018239  0.39006150622329705  0.7575304354835599  1.0000
  H   H3        1.0  0.8097936511547186  0.39006143371692664  0.7575303943942175  1.0000
  C   C10       1.0  0.15271091080817017  0.052058604839299256  0.408072105937185  1.0000
  C   C11       1.0  0.25251217246405444  0.04869778557492131  0.43587050073864614  1.0000
  C   C12       1.0  0.30203089434759123  0.9300733936379165  0.44966322140453685  1.0000
  C   C13       1.0  0.2525121714158465  0.8135898174367042  0.43587043286311306  1.0000
  C   C14       1.0  0.15271092144883447  0.8145435460048193  0.40807218855450267  1.0000
  C   C15       1.0  0.10329677657821759  0.9343692429484769  0.3943084640911194  1.0000
  Cl  Cl1       1.0  0.4267064479996181  0.927378447362581  0.48438994012866443  1.0000
  H   H4        1.0  0.11511752019571664  0.3806276912474278  0.39760012947494916  1.0000
  H   H5        1.0  0.29220555917383395  0.13788637155548455  0.4469264740264299  1.0000
  H   H6        1.0  0.2922055205715633  0.7226851795396209  0.44692637033532506  1.0000
  H   H7        1.0  0.02632701479466638  0.9360328818375531  0.3728694619444133  1.0000
  H   H8        1.0  0.11511751660161412  0.487599722436785  0.3976004019602959  1.0000
  C   C16       1.0  0.15097835139953175  0.43662159352407315  0.9842558065722375  1.0000
  C   C17       1.0  0.2193856472120697  0.5132353703976951  0.05099232426957002  1.0000
  C   C18       1.0  0.2921240762239258  0.5791547033900825  0.9702274156781736  1.0000
  C   C19       1.0  0.297044325825671  0.5687592274657871  0.8212500005294618  1.0000
  C   C20       1.0  0.22894676354222598  0.4950054243154003  0.7528109204034243  1.0000
  C   C21       1.0  0.1544434924736846  0.4299804870956218  0.8318884330061662  1.0000
  N   N3        1.0  0.3616396727093407  0.6555878616411093  0.03996917860990212  1.0000
  H   H9        1.0  0.006672742464243428  0.18283127677915822  0.11017609938226491  1.0000
  H   H10       1.0  0.21764785735669342  0.5193927428486014  0.1670124536969304  1.0000
  H   H11       1.0  0.35320385737620796  0.6189194432043725  0.7577192362928056  1.0000
  H   H12       1.0  0.23325172715743756  0.49139411464124616  0.6366378711007643  1.0000
  H   H13       1.0  0.05428362800530453  0.26299611487802577  0.5658066370170038  1.0000
  H   H14       1.0  0.3588362186256253  0.663729309720529  0.1513391015517953  1.0000
  H   H15       1.0  0.4164057629346878  0.7047271361814038  0.9807270988622147  1.0000
  Zn  Zn1       1.0  0.046927482756436566  0.43330256512350873  0.40807420204078015  1.0000
  Zn  Zn2       1.0  0.25848512343398755  0.4332989308865416  0.40806937674274035  1.0000
  C   C22       1.0  0.15378635824798462  0.42606379571958963  0.6716677183162092  1.0000
  C   C23       1.0  0.15162855872444947  0.4405393372385948  0.1444760020684981  1.0000
  C   C24       1.0  0.15268245564544314  0.670462692260776  0.40232094820717634  1.0000
  C   C25       1.0  0.1527323894516457  0.19613888029019777  0.41382284912419376  1.0000
  O   O1        1.0  0.23213179633739922  0.44184712470744425  0.19824553213091844  1.0000
  O   O2        1.0  0.23385047310026763  0.4247522737935634  0.6178941105080695  1.0000
  O   O3        1.0  0.23295798164229756  0.6221074618574516  0.4003946879966793  1.0000
  O   O4        1.0  0.23302421516270028  0.2444919467798896  0.4157448464312219  1.0000
  O   O5        1.0  0.07238831883345265  0.6221095492328741  0.4003987323463527  1.0000
  O   O6        1.0  0.07328080997249709  0.4247559215789092  0.617898077905136  1.0000
  O   O7        1.0  0.07156212618032654  0.44185074084617715  0.1982477643391436  1.0000
  O   O8        1.0  0.07245454544402596  0.2444955527850019  0.4157471868445892  1.0000
