data_image0
_chemical_formula_structural       NC5NC3BrH3C7NH5C6NCH6Zn2C4O8
_chemical_formula_sum              "N4 C26 Br1 H14 Zn2 O8"
_cell_length_a       13.839083392302014
_cell_length_b       9.275154477615127
_cell_length_c       9.273390368590327
_cell_angle_alpha    86.39388611738053
_cell_angle_beta     89.99157220175844
_cell_angle_gamma    89.45968127068964

_space_group_name_H-M_alt    "P 1"
_space_group_IT_number       1

loop_
  _space_group_symop_operation_xyz
  'x, y, z'

loop_
  _atom_site_type_symbol
  _atom_site_label
  _atom_site_symmetry_multiplicity
  _atom_site_fract_x
  _atom_site_fract_y
  _atom_site_fract_z
  _atom_site_occupancy
  N   N1        1.0  0.8997239916527447  0.5616752705788761  0.4163598835170268  1.0000
  C   C1        1.0  0.8281424312136879  0.49806587411198217  0.41857177803785195  1.0000
  C   C2        1.0  0.7389569835835507  0.4189137903338891  0.4213239818853818  1.0000
  C   C3        1.0  0.6508963762675604  0.49507528271042506  0.4186759584077504  1.0000
  C   C4        1.0  0.563344070993558  0.42038576827096663  0.42127274336582055  1.0000
  C   C5        1.0  0.473065486235244  0.49889746670490925  0.4185428457687099  1.0000
  N   N2        1.0  0.40049319236870906  0.5620147151199026  0.4163480250757903  1.0000
  C   C6        1.0  0.5637886008859576  0.2692234165118801  0.42652842481810516  1.0000
  C   C7        1.0  0.6514049646237479  0.19294071676244995  0.42918057114035135  1.0000
  C   C8        1.0  0.7391580221439993  0.26691646785508394  0.4266086228115167  1.0000
  Br  Br1       1.0  0.8572892283984584  0.15688172487915897  0.43043444963466726  1.0000
  H   H1        1.0  0.6504968127956118  0.612213309787073  0.414603050684651  1.0000
  H   H2        1.0  0.49648345032609104  0.2104005430187839  0.4285733374930669  1.0000
  H   H3        1.0  0.6510396825018576  0.0760517661933584  0.4332444413834866  1.0000
  C   C9        1.0  0.15290967806112943  0.13843986462515834  0.41468600182937787  1.0000
  C   C10       1.0  0.12640901508595093  0.22025101091903787  0.28760354114947395  1.0000
  C   C11       1.0  0.09204757463084312  0.1529108297415187  0.1672530467179445  1.0000
  C   C12       1.0  0.0836209211412593  0.002841046900021961  0.1725676287397877  1.0000
  C   C13       1.0  0.1110176642420575  0.9197920613014321  0.2967533104962503  1.0000
  C   C14       1.0  0.14731682642269517  0.9852391597606652  0.41803439780215745  1.0000
  C   C15       1.0  0.0642616403846834  0.2382866464575588  0.03863893381174388  1.0000
  N   N3        1.0  0.04192945706670348  0.3069132522423903  0.9352661312299676  1.0000
  H   H4        1.0  0.17158313118485746  0.2188818925687659  0.7684829231509553  1.0000
  H   H5        1.0  0.13035595727139992  0.33716765659257275  0.28332680329947224  1.0000
  H   H6        1.0  0.05669712546098338  0.9497136407803755  0.0800707273195953  1.0000
  H   H7        1.0  0.10594370144162202  0.8033196786592622  0.2966265843098632  1.0000
  H   H8        1.0  0.16399082779586438  0.6889983929959189  0.6550883004067727  1.0000
  C   C16       1.0  0.1501877319788809  0.5573433215185088  0.9930966263180316  1.0000
  C   C17       1.0  0.23895425006649718  0.5545386435949107  0.06668568994238822  1.0000
  C   C18       1.0  0.3260842853891448  0.5651362095106744  0.9913105142097174  1.0000
  C   C19       1.0  0.32666075969198816  0.5789305624007361  0.8397370525476999  1.0000
  C   C20       1.0  0.23849926412013311  0.5793040710447754  0.7653287583264214  1.0000
  C   C21       1.0  0.150038790183449  0.5663357057845277  0.8396237201376309  1.0000
  N   N4        1.0  0.41541298904249957  0.5911893655787701  0.7589949195281709  1.0000
  C   C22       1.0  0.5108161532731412  0.5914239644573787  0.8259815378423099  1.0000
  H   H9        1.0  0.3926689387649092  0.5638545993719324  0.05242470145777788  1.0000
  H   H10       1.0  0.9255908540348671  0.4541679508723082  0.7436950289212643  1.0000
  H   H11       1.0  0.41221466975151033  0.6007428792089489  0.6461569442337796  1.0000
  H   H12       1.0  0.5164763556747094  0.6839199630037784  0.8958156477317307  1.0000
  H   H13       1.0  0.5232833925505451  0.48836749539093555  0.8911276695486557  1.0000
  H   H14       1.0  0.5673710062920005  0.6023623829091749  0.7411327347747307  1.0000
  Zn  Zn1       1.0  0.04423519278740007  0.5617694496891839  0.41636477609340394  1.0000
  Zn  Zn2       1.0  0.255982059347015  0.5619088437989253  0.4163549144803793  1.0000
  C   C23       1.0  0.15010270480335586  0.5588919835321979  0.679589268077947  1.0000
  C   C24       1.0  0.15011684755985244  0.5647881322167498  0.15313057105070027  1.0000
  C   C25       1.0  0.14837002732331572  0.8251150315857367  0.4116577627997906  1.0000
  C   C26       1.0  0.15184946421320045  0.29856335264552536  0.42106214632726324  1.0000
  O   O1        1.0  0.23044993197779284  0.5673332877885662  0.2068356575279413  1.0000
  O   O2        1.0  0.2304805998722117  0.5564515327447381  0.6258762776493914  1.0000
  O   O3        1.0  0.22908035738211208  0.7714300261052476  0.4095196974558999  1.0000
  O   O4        1.0  0.231850102163925  0.35235480354671855  0.4231921296939851  1.0000
  O   O5        1.0  0.06836707771166761  0.7713234898953114  0.40952756087558795  1.0000
  O   O6        1.0  0.06976730876963666  0.5563467280064083  0.6258840710664633  1.0000
  O   O7        1.0  0.06973664157627812  0.567228414397734  0.20684171782062166  1.0000
  O   O8        1.0  0.07113681180755464  0.3522499209911454  0.4231982980099036  1.0000
