data_image0
_chemical_formula_structural       NC5NC3F3CH3C6NCH9C7F3H5Zn2C4O8
_chemical_formula_sum              "N3 C27 F6 H17 Zn2 O8"
_cell_length_a       13.85151926108384
_cell_length_b       9.273386996610926
_cell_length_c       10.299327507215198
_cell_angle_alpha    85.45811780594276
_cell_angle_beta     89.98119703014584
_cell_angle_gamma    89.3985898819531

_space_group_name_H-M_alt    "P 1"
_space_group_IT_number       1

loop_
  _space_group_symop_operation_xyz
  'x, y, z'

loop_
  _atom_site_type_symbol
  _atom_site_label
  _atom_site_symmetry_multiplicity
  _atom_site_fract_x
  _atom_site_fract_y
  _atom_site_fract_z
  _atom_site_occupancy
  N   N1        1.0  0.8983355827560986  0.5790947698906161  0.5651008411800287  1.0000
  C   C1        1.0  0.8260562237482775  0.5700028211317187  0.6213914436597077  1.0000
  C   C2        1.0  0.736135018985309  0.5586911899972076  0.6914250058375022  1.0000
  C   C3        1.0  0.6485606677283443  0.5679265001532787  0.6233699654452505  1.0000
  C   C4        1.0  0.5610830295782309  0.5586911768494625  0.6914249877860004  1.0000
  C   C5        1.0  0.47103697149488666  0.5700028372743786  0.6213915283825563  1.0000
  N   N2        1.0  0.39865739738609396  0.579094731973137  0.565100936240355  1.0000
  C   C6        1.0  0.5611774567088221  0.5392221764160559  0.827695133507331  1.0000
  C   C7        1.0  0.648783028568125  0.5267957006545441  0.8968919588439275  1.0000
  C   C8        1.0  0.6488568857518827  0.5111901827583734  0.043783244669946  1.0000
  F   F1        1.0  0.73030590671342  0.4363405106942826  0.09038308989491184  1.0000
  F   F2        1.0  0.5684370922460684  0.4363404800696768  0.09038317939825746  1.0000
  F   F3        1.0  0.6478908565230488  0.6470476963695133  0.09017664507928724  1.0000
  C   C9        1.0  0.7362477842150297  0.5392220811245194  0.8276951513217903  1.0000
  H   H1        1.0  0.6484793484419105  0.5831603506227045  0.517864547828045  1.0000
  H   H2        1.0  0.49307799152302034  0.5340342526866229  0.8796424635440896  1.0000
  H   H3        1.0  0.804394745619894  0.5340341717632211  0.8796424266896632  1.0000
  C   C10       1.0  0.15146968952963155  0.15544067901810132  0.5657390635953965  1.0000
  C   C11       1.0  0.16844933079699395  0.23893432561662317  0.44831070085215147  1.0000
  C   C12       1.0  0.17633907439982233  0.17444948491980705  0.3308750782601708  1.0000
  C   C13       1.0  0.1673688226547259  0.024149283107397498  0.3278652623403542  1.0000
  C   C14       1.0  0.1520905915857309  0.9396927847863393  0.44488570543006567  1.0000
  C   C15       1.0  0.14553257169411937  0.002737730051934884  0.5644739424772317  1.0000
  N   N3        1.0  0.17444303353875057  0.9546283904040922  0.2080050650593308  1.0000
  C   C16       1.0  0.1905562180976739  0.032544365224778556  0.08126841760162674  1.0000
  H   H4        1.0  0.17114182544096676  0.41755262834674095  0.7789608706805824  1.0000
  H   H5        1.0  0.17337379132781172  0.3555804637539823  0.446717340948049  1.0000
  H   H6        1.0  0.18853514834860383  0.2430651613901571  0.24265706999115613  1.0000
  H   H7        1.0  0.14753428308339414  0.8232920301863751  0.4428368913020247  1.0000
  H   H8        1.0  0.18100205590519414  0.8713271628716998  0.8807966678174008  1.0000
  H   H9        1.0  0.16761705836110385  0.8422608540436016  0.21069819100288845  1.0000
  H   H10       1.0  0.130713104482745  0.11112139613154293  0.05870326896185252  1.0000
  H   H11       1.0  0.26043278393756575  0.09009607999647275  0.08147799662167299  1.0000
  H   H12       1.0  0.19300847780408462  0.9551195878230035  0.004382159833429492  1.0000
  C   C17       1.0  0.14859318034573102  0.5791478118176472  0.18372482117244918  1.0000
  C   C18       1.0  0.2420044384110761  0.6369940887434555  0.17836798500900963  1.0000
  C   C19       1.0  0.28840462553498813  0.6686239570968051  0.05836576774915848  1.0000
  C   C20       1.0  0.24176275186142765  0.6368411037439596  0.9431307557576628  1.0000
  C   C21       1.0  0.14840913155109386  0.5790306390350612  0.9464881724081529  1.0000
  C   C22       1.0  0.10221860866181068  0.5510540909613697  0.06725750141237175  1.0000
  C   C23       1.0  0.3900411856591581  0.7258329905979573  0.05401802113380772  1.0000
  F   F4        1.0  0.40631429352072473  0.8100803020819833  0.156783391425251  1.0000
  F   F5        1.0  0.4546161940689142  0.6108081014309552  0.06205873531725392  1.0000
  F   F6        1.0  0.40604921449400416  0.8100607282885126  0.9391400169587444  1.0000
  H   H13       1.0  0.9729869976616908  0.46757309262784386  0.40124349437773726  1.0000
  H   H14       1.0  0.27888519176291715  0.6572852269962237  0.2677342212531153  1.0000
  H   H15       1.0  0.27847775630207905  0.6570234244586961  0.8507205915562701  1.0000
  H   H16       1.0  0.03022129740664715  0.5064723086947491  0.07058132951524265  1.0000
  H   H17       1.0  0.11316586763987685  0.5544373266873239  0.6204933612800043  1.0000
  Zn  Zn1       1.0  0.04271767627082281  0.5790909063824545  0.5651083601471758  1.0000
  Zn  Zn2       1.0  0.25427536631480413  0.5790868265612439  0.5651040240754635  1.0000
  C   C24       1.0  0.1484820127300257  0.5733054453265619  0.8023181368837591  1.0000
  C   C25       1.0  0.1485133272731683  0.5848741078583348  0.327894372044244  1.0000
  C   C26       1.0  0.1466511093166858  0.8425813609396001  0.5595377116092546  1.0000
  C   C27       1.0  0.15034417062539038  0.31559645893129784  0.5706748691492689  1.0000
  O   O1        1.0  0.22877161278438418  0.5867880629054039  0.3762773542031539  1.0000
  O   O2        1.0  0.22879112656687453  0.5713873054955263  0.7539314915132906  1.0000
  O   O3        1.0  0.22731156629901483  0.7888310126251821  0.5578845781746702  1.0000
  O   O4        1.0  0.23025110081312006  0.36934436611239985  0.5723241701499204  1.0000
  O   O5        1.0  0.0667418695782405  0.7888333668342622  0.5578882140673653  1.0000
  O   O6        1.0  0.06822141771295187  0.5713913930215695  0.7539350555701119  1.0000
  O   O7        1.0  0.06820190472377298  0.5867921003975338  0.3762793568821363  1.0000
  O   O8        1.0  0.06968139279736649  0.36934839327084235  0.5723262702154035  1.0000
