data_image0
_chemical_formula_structural       NC5NC3BrH3C7NH5C7ONH5Zn2C4O8
_chemical_formula_sum              "N4 C26 Br1 H13 O9 Zn2"
_cell_length_a       13.839083392302014
_cell_length_b       9.275154477615127
_cell_length_c       9.273042158839658
_cell_angle_alpha    86.38948304707893
_cell_angle_beta     90.09396774382412
_cell_angle_gamma    89.45968127068964

_space_group_name_H-M_alt    "P 1"
_space_group_IT_number       1

loop_
  _space_group_symop_operation_xyz
  'x, y, z'

loop_
  _atom_site_type_symbol
  _atom_site_label
  _atom_site_symmetry_multiplicity
  _atom_site_fract_x
  _atom_site_fract_y
  _atom_site_fract_z
  _atom_site_occupancy
  N   N1        1.0  0.897826568348696  0.5618241265018891  0.4162889323797273  1.0000
  C   C1        1.0  0.8262476580699666  0.4982145221256365  0.41850092599909816  1.0000
  C   C2        1.0  0.7370655079666245  0.4190621796512401  0.4212532531524161  1.0000
  C   C3        1.0  0.649001727946556  0.49522392093153594  0.4186051110365443  1.0000
  C   C4        1.0  0.5614525339856881  0.42053416240453645  0.4212020123372382  1.0000
  C   C5        1.0  0.47117067842660054  0.49904611743808286  0.4184719924337162  1.0000
  N   N2        1.0  0.39859575485658194  0.562163572157562  0.41627707340720255  1.0000
  C   C6        1.0  0.5619033609227019  0.26937131663212877  0.4264579292575259  1.0000
  C   C7        1.0  0.6495229023043176  0.19308836759140768  0.4291101944027272  1.0000
  C   C8        1.0  0.7372728782692048  0.2670643604370375  0.4265381308440128  1.0000
  Br  Br1       1.0  0.855408668401589  0.1570292578484853  0.4303641290740138  1.0000
  H   H1        1.0  0.648597284559058  0.6123623308454411  0.4145320208367367  1.0000
  H   H2        1.0  0.49460066045545675  0.21054825092530874  0.4285029335498185  1.0000
  H   H3        1.0  0.6491624892698062  0.0761990350345465  0.4331742467176678  1.0000
  C   C9        1.0  0.15101024921169914  0.13858887788644592  0.41461497569788786  1.0000
  C   C10       1.0  0.12435732359810858  0.22041196943025088  0.28752682139793584  1.0000
  C   C11       1.0  0.08985168634575413  0.15308310072438958  0.16717093495570512  1.0000
  C   C12       1.0  0.08143140047194009  0.003012818333149923  0.17248575508444852  1.0000
  C   C13       1.0  0.10897693546310605  0.9199521597704249  0.2966770006778371  1.0000
  C   C14       1.0  0.145421409421969  0.9853878582859413  0.4179635216873916  1.0000
  C   C15       1.0  0.061911654326674004  0.2384710066596214  0.03855105980750962  1.0000
  N   N3        1.0  0.03945561587103863  0.3071073290800585  0.9351736258591552  1.0000
  H   H4        1.0  0.17010760074291764  0.21899765031528418  0.7684277480285925  1.0000
  H   H5        1.0  0.1282991416508854  0.3373290171002703  0.2832498919391131  1.0000
  H   H6        1.0  0.05439678051127396  0.949894106557309  0.07998470956593251  1.0000
  H   H7        1.0  0.1039028208268995  0.8034797890400167  0.29655026881379154  1.0000
  H   H8        1.0  0.16237943466800941  0.6891248093895994  0.6550280449145938  1.0000
  C   C16       1.0  0.1477831798394369  0.5575319625177975  0.9930067119016626  1.0000
  C   C17       1.0  0.05897246909118947  0.5666532247988263  0.06572592365426111  1.0000
  C   C18       1.0  0.971814634596973  0.5897220411750106  0.9895632732787627  1.0000
  C   C19       1.0  0.9740147105623409  0.6019284309736939  0.8381127806312492  1.0000
  C   C20       1.0  0.0612575311572372  0.5906891949474651  0.7643758047545184  1.0000
  C   C21       1.0  0.14864850308543254  0.5664447120219587  0.8395717699904837  1.0000
  C   C22       1.0  0.8794132552985577  0.5996130363505257  0.06946483612548282  1.0000
  O   O1        1.0  0.8733260790009579  0.5438127137019589  0.19661497646776474  1.0000
  N   N4        1.0  0.7967382155091164  0.6727051399303714  0.006219565714633339  1.0000
  H   H9        1.0  0.3818572288563915  0.6127645053243442  0.09317900322543027  1.0000
  H   H10       1.0  0.9082112203996343  0.6161397180859551  0.7755475731377919  1.0000
  H   H11       1.0  0.30646630976178596  0.5969568777626724  0.5567664813072084  1.0000
  H   H12       1.0  0.8009807410058832  0.7349703648992019  0.9087998305347114  1.0000
  H   H13       1.0  0.7314292489310588  0.6724985862645225  0.06246292941878374  1.0000
  Zn  Zn1       1.0  0.04233777534534511  0.561918305152314  0.4162938251753048  1.0000
  Zn  Zn2       1.0  0.25408463008936244  0.5620577001890079  0.41628396312045424  1.0000
  C   C23       1.0  0.14852066727627644  0.5590160969315816  0.6795301102919342  1.0000
  C   C24       1.0  0.1479040385652142  0.5649617306566159  0.15304782656534455  1.0000
  C   C25       1.0  0.14646697021816912  0.8252643294895459  0.4115866009954281  1.0000
  C   C26       1.0  0.1499576748804972  0.2987117665743859  0.420991405863393  1.0000
  O   O2        1.0  0.2283014692203884  0.5675018381621857  0.20675531916814685  1.0000
  O   O3        1.0  0.22883420663785417  0.5565806949533081  0.6258147133837  1.0000
  O   O4        1.0  0.22717473857436254  0.7715795249787634  0.4094484398607286  1.0000
  O   O5        1.0  0.2299608648504812  0.3525030172655459  0.4231214846588309  1.0000
  O   O6        1.0  0.06646146832539901  0.7714729880296973  0.4094563036327181  1.0000
  O   O7        1.0  0.06812092487288823  0.5564758894824275  0.625822507149937  1.0000
  O   O8        1.0  0.06758818607995543  0.56739696420171  0.206761379732344  1.0000
  O   O9        1.0  0.06924758188461966  0.3523981341301752  0.42312765325110574  1.0000
