data_image0
_chemical_formula_structural       NC9NC3OH6C6SCH8C6OCH7Zn2C4O8
_chemical_formula_sum              "N2 C30 O10 H21 S1 Zn2"
_cell_length_a       15.78231758774541
_cell_length_b       10.302809429070853
_cell_length_c       9.273891588657152
_cell_angle_alpha    86.07628969810115
_cell_angle_beta     89.76748324947235
_cell_angle_gamma    89.63144148246117

_space_group_name_H-M_alt    "P 1"
_space_group_IT_number       1

loop_
  _space_group_symop_operation_xyz
  'x, y, z'

loop_
  _atom_site_type_symbol
  _atom_site_label
  _atom_site_symmetry_multiplicity
  _atom_site_fract_x
  _atom_site_fract_y
  _atom_site_fract_z
  _atom_site_occupancy
  N   N1        1.0  0.8030633354280671  0.39989761852913946  0.412792529723489  1.0000
  C   C1        1.0  0.7544446251284783  0.3180769358378115  0.4395177984775876  1.0000
  C   C2        1.0  0.6940827143641612  0.21651758347498018  0.4726907420239541  1.0000
  C   C3        1.0  0.7136104498997767  0.08894195202577748  0.5142731703980539  1.0000
  C   C4        1.0  0.6368142443001724  0.027114481833476534  0.5345083850492869  1.0000
  C   C5        1.0  0.5751332471653727  0.12153542369619608  0.5037784447063369  1.0000
  C   C6        1.0  0.48202350721493115  0.10407926535225774  0.5095617896094611  1.0000
  C   C7        1.0  0.4283919778984317  0.21111574387120702  0.47454238657314  1.0000
  C   C8        1.0  0.3401700845591156  0.19680217735269356  0.4792925381871878  1.0000
  C   C9        1.0  0.28584539229951167  0.30695286308830894  0.4432450749874719  1.0000
  N   N2        1.0  0.2421812240884184  0.395499791393191  0.4142661363264193  1.0000
  C   C10       1.0  0.30489825688458116  0.07529284192650088  0.5191164694414017  1.0000
  C   C11       1.0  0.35759907268475244  0.9684776977608451  0.5540683066569059  1.0000
  C   C12       1.0  0.44563488513019267  0.9823980361335307  0.5494472376890218  1.0000
  O   O1        1.0  0.6117101290926772  0.23343563104111006  0.46725130401717313  1.0000
  H   H1        1.0  0.7760255647068444  0.04591841207213232  0.5282398204474675  1.0000
  H   H2        1.0  0.6279745833605647  0.9254529308238039  0.5676612286545388  1.0000
  H   H3        1.0  0.4550979688738321  0.30567150946466537  0.44354706633815894  1.0000
  H   H4        1.0  0.23676892432953173  0.06316997569599912  0.5231372452211603  1.0000
  H   H5        1.0  0.33016345169196204  0.87456836828779  0.5848521969329048  1.0000
  H   H6        1.0  0.4846315043045319  0.8977929943560734  0.5771407105077515  1.0000
  C   C13       1.0  0.022626321006113937  0.016445305319420237  0.4135355993541603  1.0000
  C   C14       1.0  0.07192171411801818  0.022585379384967075  0.2868719696044475  1.0000
  C   C15       1.0  0.09621749583915218  0.9086624495020637  0.22368412053472242  1.0000
  C   C16       1.0  0.07192160753396681  0.7874342219025516  0.286871891783246  1.0000
  C   C17       1.0  0.02262628725856872  0.7789421669650181  0.4135355916740684  1.0000
  C   C18       1.0  0.9981976437505652  0.8940734172368517  0.4762210302472143  1.0000
  S   S1        1.0  0.1593554078830519  0.9179977216244264  0.06202154986921538  1.0000
  C   C19       1.0  0.06792555636979869  0.9262450519244667  0.942761600744499  1.0000
  H   H7        1.0  0.004021507690494587  0.3414467528524856  0.46123790746566384  1.0000
  H   H8        1.0  0.09150132512490994  0.11559102666222865  0.2365592126488643  1.0000
  H   H9        1.0  0.09150113851346586  0.7002406341307145  0.2365590997007048  1.0000
  H   H10       1.0  0.9601601373003679  0.8884312941512159  0.5739074708519807  1.0000
  H   H11       1.0  0.00402012885339831  0.44843098580764795  0.4612363178345167  1.0000
  H   H12       1.0  0.02897925402074007  0.8373360722029272  0.9618512601950472  1.0000
  H   H13       1.0  0.02898004924765507  0.013571021647981409  0.9618507389000683  1.0000
  H   H14       1.0  0.09017750675824265  0.9330381387543953  0.8289067628995868  1.0000
  C   C20       1.0  0.024014385376981865  0.3942413858661662  0.9902648958876351  1.0000
  C   C21       1.0  0.09340387936367821  0.4483833726004152  0.059071449978566726  1.0000
  C   C22       1.0  0.1579871721289411  0.5122681263189817  0.9794784286388825  1.0000
  C   C23       1.0  0.15341191349805583  0.5223339009300633  0.8280224613317917  1.0000
  C   C24       1.0  0.08580254653089397  0.4673879701957795  0.7578796831862715  1.0000
  C   C25       1.0  0.021238198719756962  0.40114602511065756  0.836806219666272  1.0000
  O   O2        1.0  0.22506268399386264  0.5648347919636274  0.05491012530353912  1.0000
  C   C26       1.0  0.2948369870451628  0.6324626420954982  0.9880678983252071  1.0000
  H   H15       1.0  0.8224736255457124  0.316519449588883  0.10060580812257314  1.0000
  H   H16       1.0  0.20222172785097714  0.5714215169409136  0.7632641181942783  1.0000
  H   H17       1.0  0.08511886304154581  0.47408604073227006  0.6407962121874956  1.0000
  H   H18       1.0  0.8868372580939402  0.343659514570021  0.5609125516875055  1.0000
  H   H19       1.0  0.2720924728984224  0.7205470521158985  0.9235959868042235  1.0000
  H   H20       1.0  0.33016652040565764  0.5676747037619261  0.9177737950672019  1.0000
  H   H21       1.0  0.3382103024427512  0.6630608271011988  0.07305699361420204  1.0000
  Zn  Zn1       1.0  0.9297832417077735  0.3986251005244428  0.4132260975462527  1.0000
  Zn  Zn2       1.0  0.11546125067597307  0.39676180924187104  0.4138443512596375  1.0000
  C   C27       1.0  0.02176108156346877  0.3946688460363248  0.6767917953696874  1.0000
  C   C28       1.0  0.02348543795433433  0.40071968266010893  0.15027880165882812  1.0000
  C   C29       1.0  0.022640764375354772  0.6347672133648412  0.4077917579861332  1.0000
  C   C30       1.0  0.022605691531590203  0.16061975676415896  0.4192789156775536  1.0000
  O   O3        1.0  0.09377175510194369  0.4021810848875212  0.20421555424333998  1.0000
  O   O4        1.0  0.09240007828680077  0.3917922660290394  0.6233238681270548  1.0000
  O   O5        1.0  0.09310947848124758  0.5856747558615993  0.4061044315569442  1.0000
  O   O6        1.0  0.09306229190258763  0.2082986040967003  0.42143488252906547  1.0000
  O   O7        1.0  0.9521821371183918  0.5870883063068149  0.4056355660582631  1.0000
  O   O8        1.0  0.9514727371720356  0.39320737567889014  0.6228549257746405  1.0000
  O   O9        1.0  0.9528444197266274  0.40359613515996245  0.20374487893624238  1.0000
  O   O10       1.0  0.9521349561694139  0.2097136459646041  0.4209643152877919  1.0000
