data_image0
_chemical_formula_structural       NC9NC3OH6C6ClH3C6OCH7Zn2C4O8
_chemical_formula_sum              "N2 C29 O10 H16 Cl1 Zn2"
_cell_length_a       15.78231758774541
_cell_length_b       10.30297070629231
_cell_length_c       9.273891588657152
_cell_angle_alpha    86.0762958320409
_cell_angle_beta     89.76748324947235
_cell_angle_gamma    89.63144908567993

_space_group_name_H-M_alt    "P 1"
_space_group_IT_number       1

loop_
  _space_group_symop_operation_xyz
  'x, y, z'

loop_
  _atom_site_type_symbol
  _atom_site_label
  _atom_site_symmetry_multiplicity
  _atom_site_fract_x
  _atom_site_fract_y
  _atom_site_fract_z
  _atom_site_occupancy
  N   N1        1.0  0.8030634563480857  0.399875693852062  0.4127926958637911  1.0000
  C   C1        1.0  0.7544447389810094  0.31805629260590745  0.43951795490738443  1.0000
  C   C2        1.0  0.6940828194442232  0.21649853082796944  0.4726908864006547  1.0000
  C   C3        1.0  0.7136105439601417  0.0889248974209711  0.5142732996340371  1.0000
  C   C4        1.0  0.636814333020019  0.027098395547567204  0.5345085069475657  1.0000
  C   C5        1.0  0.5751333440410886  0.12151785862452935  0.5037785778105237  1.0000
  C   C6        1.0  0.4820236025828232  0.10406197367246639  0.5095619206419453  1.0000
  C   C7        1.0  0.4283920825118948  0.21109677582580422  0.47454253030874805  1.0000
  C   C8        1.0  0.3401701879362047  0.19678343348105856  0.4792926802240576  1.0000
  C   C9        1.0  0.2858455051911706  0.3069323940775046  0.44324523009706035  1.0000
  N   N2        1.0  0.24218134462856228  0.3954779355932505  0.41426630194478586  1.0000
  C   C10       1.0  0.30489834976596675  0.0752760010889919  0.5191165970575038  1.0000
  C   C11       1.0  0.357599156339685  0.9684625298224911  0.5540684215961522  1.0000
  C   C12       1.0  0.44563496998753266  0.9823826501800018  0.5494473542803382  1.0000
  O   O1        1.0  0.6117102356340821  0.23341631342991587  0.4672514504017127  1.0000
  H   H1        1.0  0.7760256550509318  0.04590203128604453  0.5282399445774029  1.0000
  H   H2        1.0  0.6279746632991144  0.9254384367233852  0.5676613384875924  1.0000
  H   H3        1.0  0.4550980816548103  0.305651060521946  0.4435472212956759  1.0000
  H   H4        1.0  0.23676901616377086  0.06315332472232305  0.5231373713985166  1.0000
  H   H5        1.0  0.3301635272352171  0.8745546711225094  0.5848523007269615  1.0000
  H   H6        1.0  0.4846315818538781  0.8977789334553166  0.5771408170581147  1.0000
  C   C13       1.0  0.02262640880438127  0.016429386130194294  0.41353571998621796  1.0000
  C   C14       1.0  0.11002828310847951  0.012636566155987515  0.44159192251172913  1.0000
  C   C15       1.0  0.1533947606757604  0.8937978253848669  0.45551256061917944  1.0000
  C   C16       1.0  0.11002828265433745  0.7775285969398554  0.44159185472131246  1.0000
  C   C17       1.0  0.02262641757636728  0.7789143285254253  0.413535802527514  1.0000
  C   C18       1.0  0.9793515252003614  0.8989539195092505  0.3996444309391445  1.0000
  Cl  Cl1       1.0  0.2625805260295886  0.8905632057058405  0.4905613427430095  1.0000
  H   H7        1.0  0.14479013304026256  0.10165333297532508  0.45275043235635337  1.0000
  H   H8        1.0  0.1447900998718219  0.6864521396379994  0.4527503286863037  1.0000
  H   H9        1.0  0.9119445474924389  0.9009507298725282  0.3780065996989923  1.0000
  C   C19       1.0  0.024014505808427556  0.3942195497749062  0.9902650613566532  1.0000
  C   C20       1.0  0.09340400447178715  0.4483606885574476  0.05907162187317394  1.0000
  C   C21       1.0  0.15798730275527165  0.5122444417367057  0.9794786081153527  1.0000
  C   C22       1.0  0.15341204499384553  0.5223100587013604  0.8280226420028711  1.0000
  C   C23       1.0  0.08580267328057761  0.4673649885098563  0.7578798573363503  1.0000
  C   C24       1.0  0.02123831974760936  0.4011240808814993  0.836806385954735  1.0000
  O   O2        1.0  0.22506281916078386  0.5648102841017388  0.05491031101863797  1.0000
  C   C25       1.0  0.29483712805362683  0.6324370750713136  0.9880680920664014  1.0000
  H   H10       1.0  0.8224737392637113  0.31649883074975027  0.100605964367527  1.0000
  H   H11       1.0  0.20222186358684546  0.5713969059201824  0.7632643046910927  1.0000
  H   H12       1.0  0.08511899036979374  0.4740629541436512  0.6407963871325042  1.0000
  H   H13       1.0  0.8868373741562371  0.3436384706732607  0.5609127111534513  1.0000
  H   H14       1.0  0.27209262151542  0.7205201055463675  0.9235961909993043  1.0000
  H   H15       1.0  0.3301666558178844  0.5676501514223926  0.9177739811193426  1.0000
  H   H16       1.0  0.3382104460942177  0.663034780859594  0.07305719098679897  1.0000
  Zn  Zn1       1.0  0.9297833625178742  0.39860319577707043  0.4132262635355317  1.0000
  Zn  Zn2       1.0  0.11546137132512713  0.39673993367667526  0.4138445170277807  1.0000
  C   C26       1.0  0.02176120203183717  0.3946470032503422  0.6767919608894368  1.0000
  C   C27       1.0  0.02348555894536042  0.40069774510816836  0.15027896789669293  1.0000
  C   C28       1.0  0.022640905582882235  0.6347416102473167  0.40779195200083485  1.0000
  C   C29       1.0  0.022605791783323555  0.16060157956817012  0.4192790534202817  1.0000
  O   O3        1.0  0.09377187621920254  0.40215912444764107  0.20421572065464466  1.0000
  O   O4        1.0  0.09240019850669706  0.3917704682949859  0.6233240333054113  1.0000
  O   O5        1.0  0.09310961544827884  0.5856499216119286  0.4061046197453373  1.0000
  O   O6        1.0  0.09306239627271307  0.2082796801722955  0.4214350259303348  1.0000
  O   O7        1.0  0.9521822742075223  0.587063449918642  0.40563575441441646  1.0000
  O   O8        1.0  0.9514728575141653  0.3931855557819137  0.6228550911209427  1.0000
  O   O9        1.0  0.9528445409661154  0.4035741525580896  0.20374504551548567  1.0000
  O   O10       1.0  0.9521350606617666  0.2096946998783384  0.4209644588569985  1.0000
