data_image0
_chemical_formula_structural       NC9NC3SH6C6NCOCH7C6OCH7Zn2C4O8
_chemical_formula_sum              "N3 C31 S1 H20 O10 Zn2"
_cell_length_a       16.77567553997237
_cell_length_b       10.300268703208216
_cell_length_c       9.273891588657154
_cell_angle_alpha    86.07587478402297
_cell_angle_beta     90.06962488754225
_cell_angle_gamma    90.87327597949842

_space_group_name_H-M_alt    "P 1"
_space_group_IT_number       1

loop_
  _space_group_symop_operation_xyz
  'x, y, z'

loop_
  _atom_site_type_symbol
  _atom_site_label
  _atom_site_symmetry_multiplicity
  _atom_site_fract_x
  _atom_site_fract_y
  _atom_site_fract_z
  _atom_site_occupancy
  N   N1        1.0  0.7552788118029254  0.42701319983017877  0.41795284384743736  1.0000
  C   C1        1.0  0.7003785343128578  0.4767131897777975  0.4641302211212097  1.0000
  C   C2        1.0  0.6322465020664274  0.5383875874502972  0.521432813343722  1.0000
  C   C3        1.0  0.6340403433262773  0.6273288762590319  0.6269433620417411  1.0000
  C   C4        1.0  0.5582873369463777  0.6710837572786801  0.6619236935390278  1.0000
  C   C5        1.0  0.4965348105317077  0.6164046414143876  0.5835430901754928  1.0000
  C   C6        1.0  0.41000211477727533  0.6425658748810068  0.5955902045911639  1.0000
  C   C7        1.0  0.3533993819757718  0.5624565904602293  0.5308878739628964  1.0000
  C   C8        1.0  0.2717203746420013  0.5865979442348133  0.5417619910690084  1.0000
  C   C9        1.0  0.2144554419158081  0.503807628688075  0.47551063319104503  1.0000
  N   N2        1.0  0.16843142708058134  0.43725608149827955  0.42225433005149493  1.0000
  C   C10       1.0  0.24581476164188082  0.6911606566010303  0.6171596623489253  1.0000
  C   C11       1.0  0.3013273854032142  0.7714245807572646  0.6813496990072092  1.0000
  C   C12       1.0  0.38284766365701106  0.7476491130811461  0.6708025979352821  1.0000
  S   S1        1.0  0.5374838447173252  0.5134111196057665  0.4713089657542011  1.0000
  H   H1        1.0  0.6882811770095842  0.6596007481528209  0.6777452160137052  1.0000
  H   H2        1.0  0.5497587556862599  0.7396431377532636  0.7434910832940507  1.0000
  H   H3        1.0  0.3723910330654217  0.48068967642736216  0.4726647041520537  1.0000
  H   H4        1.0  0.1827992693307837  0.7106915249270003  0.6261391814541482  1.0000
  H   H5        1.0  0.2811562832405303  0.8525771326974532  0.739220419816059  1.0000
  H   H6        1.0  0.4241230202911309  0.8126900684111993  0.7204888300328116  1.0000
  C   C13       1.0  0.9619398989371267  0.050789178477154584  0.42011300448050637  1.0000
  C   C14       1.0  0.9758424101869865  0.05930264976229305  0.27042659174407  1.0000
  C   C15       1.0  0.9839344353930778  0.9463216495916245  0.1953187223747075  1.0000
  C   C16       1.0  0.9756619521184705  0.8241389491181071  0.2704606712451505  1.0000
  C   C17       1.0  0.9617779180862603  0.8134704457514196  0.42010673286298017  1.0000
  C   C18       1.0  0.9552900341446974  0.9274018334522783  0.49423355198411967  1.0000
  N   N3        1.0  0.9969280139048806  0.9534140031375433  0.04169107980381703  1.0000
  C   C19       1.0  0.04396815980914259  0.0530586668135351  0.9647317059616305  1.0000
  O   O1        1.0  0.0887767900229679  0.1277057493065166  0.03175805965949263  1.0000
  C   C20       1.0  0.04449960970246769  0.06264601690449445  0.8032720652005705  1.0000
  H   H7        1.0  0.9787998171508705  0.1537488191639265  0.21182005492732903  1.0000
  H   H8        1.0  0.980792857564846  0.7374245739658407  0.2115131011790976  1.0000
  H   H9        1.0  0.9445891501237984  0.9200269219260079  0.6096887012684291  1.0000
  H   H10       1.0  0.9751481752028431  0.8769794878152022  0.9835500838773066  1.0000
  H   H11       1.0  0.983611039720729  0.043769404597142625  0.7617735024396111  1.0000
  H   H12       1.0  0.06439375341161413  0.16145771114019558  0.7614502896076512  1.0000
  H   H13       1.0  0.08577025842024155  0.9896213343037867  0.7640242113496849  1.0000
  C   C21       1.0  0.9631656512900186  0.428722906556537  0.9968481701690494  1.0000
  C   C22       1.0  0.028440465501549106  0.48519168347358577  0.06610114933355415  1.0000
  C   C23       1.0  0.08919121264001206  0.5512453273858486  0.9869235221931771  1.0000
  C   C24       1.0  0.08488436332318905  0.5611609805838611  0.835438008646348  1.0000
  C   C25       1.0  0.021284583311930394  0.5039474211189063  0.764860275892862  1.0000
  C   C26       1.0  0.960552161457289  0.4355366474812028  0.8433715593323297  1.0000
  O   O2        1.0  0.15228921107514992  0.6060612457105137  0.06278675479801454  1.0000
  C   C27       1.0  0.2179232156094848  0.6760319783098173  0.9963933214611682  1.0000
  H   H14       1.0  0.7735590277906326  0.34426207638835704  0.10589180110491325  1.0000
  H   H15       1.0  0.13079750140650837  0.6118879634887828  0.7709935995007302  1.0000
  H   H16       1.0  0.02063990534774751  0.5106243150049252  0.6477723475776132  1.0000
  H   H17       1.0  0.8341109072239596  0.37355482113249616  0.5666128228495726  1.0000
  H   H18       1.0  0.19650493749343445  0.7633793058769749  0.9317742205962949  1.0000
  H   H19       1.0  0.2511773804932491  0.6124063864049669  0.9263272651654115  1.0000
  H   H20       1.0  0.25872525567614035  0.708083786270687  0.08166149019104463  1.0000
  Zn  Zn1       1.0  0.8745057098703422  0.4299656741534099  0.4192024921471793  1.0000
  Zn  Zn2       1.0  0.04920448975450187  0.4342931087456284  0.4210165185000114  1.0000
  C   C28       1.0  0.9610455004267827  0.42907533680150434  0.6833605550088202  1.0000
  C   C29       1.0  0.9626666061185847  0.4351851330111505  0.15685861690248726  1.0000
  C   C30       1.0  0.9618221758649804  0.6692611002085349  0.414364231737939  1.0000
  C   C31       1.0  0.9618898711619966  0.19499780853875387  0.42585501641155354  1.0000
  O   O3        1.0  0.028796399719048134  0.43899048872237123  0.21124799813320516  1.0000
  O   O4        1.0  0.027508039992796267  0.42855342081342457  0.6303475629017754  1.0000
  O   O5        1.0  0.028134316885551243  0.6225064522533921  0.4131311193755689  1.0000
  O   O6        1.0  0.028170063545108537  0.24503746422551775  0.42846433296920505  1.0000
  O   O7        1.0  0.8955400764636385  0.6192213171981322  0.41175467705136604  1.0000
  O   O8        1.0  0.8949137994731774  0.4252698453481421  0.6289710437127678  1.0000
  O   O9        1.0  0.8962021646120997  0.435706854056694  0.2098697460269583  1.0000
  O   O10       1.0  0.8955758281032484  0.24175382114133817  0.4270861889265458  1.0000
