data_image0
_chemical_formula_structural       NC5OC5NC4H8C6NH7C7F3H5Zn2C4O8
_chemical_formula_sum              "N3 C31 O9 H20 F3 Zn2"
_cell_length_a       19.189071930511275
_cell_length_b       9.274771166103582
_cell_length_c       10.299327507215196
_cell_angle_alpha    85.44807283694688
_cell_angle_beta     89.9592371194645
_cell_angle_gamma    90.58817672672019

_space_group_name_H-M_alt    "P 1"
_space_group_IT_number       1

loop_
  _space_group_symop_operation_xyz
  'x, y, z'

loop_
  _atom_site_type_symbol
  _atom_site_label
  _atom_site_symmetry_multiplicity
  _atom_site_fract_x
  _atom_site_fract_y
  _atom_site_fract_z
  _atom_site_occupancy
  N   N1        1.0  0.6644196905478917  0.5787084724674452  0.5643789098873839  1.0000
  C   C1        1.0  0.610223999791728  0.629935849877462  0.5460020754468496  1.0000
  C   C2        1.0  0.542811539375602  0.6936541709412765  0.5231440563490388  1.0000
  C   C3        1.0  0.5336759206592456  0.801325661146219  0.42154487989596473  1.0000
  C   C4        1.0  0.4681923764502064  0.8633009720469026  0.3994667189770811  1.0000
  C   C5        1.0  0.41118533622097847  0.8174900007595113  0.47763258697592353  1.0000
  O   O1        1.0  0.3465515287411234  0.88349935815502  0.45328276854490346  1.0000
  C   C6        1.0  0.2812433387529943  0.8172795463469307  0.47706870265203066  1.0000
  C   C7        1.0  0.2249095423362638  0.9034550966456942  0.5071873375716266  1.0000
  C   C8        1.0  0.1587954348453736  0.8417967358381896  0.5301156756656632  1.0000
  C   C9        1.0  0.14835243638953394  0.6931607306684149  0.5218206819222406  1.0000
  C   C10       1.0  0.0802910160259558  0.6296639776112796  0.54527283953639  1.0000
  N   N2        1.0  0.02557363572156911  0.5786147966775013  0.5641277706770396  1.0000
  C   C11       1.0  0.20421160779844671  0.6066430648744927  0.48978513947715074  1.0000
  C   C12       1.0  0.27031706826323953  0.6683452268855563  0.4669003663556375  1.0000
  C   C13       1.0  0.42080788523401075  0.710820841609771  0.5808485603723886  1.0000
  C   C14       1.0  0.4862824825022911  0.6488409622882467  0.6029881095908389  1.0000
  H   H1        1.0  0.5771172626754103  0.8374474576829241  0.3595912802576404  1.0000
  H   H2        1.0  0.46159100383457347  0.9466599172397725  0.320856103634233  1.0000
  H   H3        1.0  0.23252288829509857  0.018497580588677124  0.5135736622391531  1.0000
  H   H4        1.0  0.1158858922662375  0.9099557713083344  0.5541079421951358  1.0000
  H   H5        1.0  0.1965928777479674  0.491770937590986  0.48182361110952315  1.0000
  H   H6        1.0  0.3125192762754152  0.600418529504825  0.4394938381448158  1.0000
  H   H7        1.0  0.3780872451444022  0.6771171037448034  0.6452515036900645  1.0000
  H   H8        1.0  0.4928960724403725  0.5666457109801366  0.6826883317913963  1.0000
  C   C15       1.0  0.8428603973170202  0.1550655479988614  0.5649627137384028  1.0000
  C   C16       1.0  0.826844840119335  0.23839629206334312  0.4488333898964181  1.0000
  C   C17       1.0  0.8173358864755638  0.17336732525277435  0.33196268031850384  1.0000
  C   C18       1.0  0.8238791729838721  0.023630261903398106  0.33037471570748617  1.0000
  C   C19       1.0  0.8386063673490812  0.9389806688501615  0.4449095051347156  1.0000
  C   C20       1.0  0.8471395714094813  0.002246693088130191  0.5635552239388011  1.0000
  N   N3        1.0  0.8017487106182727  0.2597976523085346  0.21455660760120468  1.0000
  H   H9        1.0  0.9212379936769451  0.23466188229369236  0.849139648000842  1.0000
  H   H10       1.0  0.8233311891448385  0.3549899877374838  0.44833695328168677  1.0000
  H   H11       1.0  0.8168928211704102  0.9721586639799308  0.24045426643192291  1.0000
  H   H12       1.0  0.8416781603076675  0.8228164284760049  0.44118785874582317  1.0000
  H   H13       1.0  0.8971051925971908  0.7051377215349355  0.7568984929538025  1.0000
  H   H14       1.0  0.7969473231898944  0.3718728048379909  0.21451776399859782  1.0000
  H   H15       1.0  0.7948275882498661  0.21234291711747663  0.12677194601756206  1.0000
  C   C21       1.0  0.8450670097382827  0.5787146747713057  0.18287722983140497  1.0000
  C   C22       1.0  0.9130800386851231  0.636535478337604  0.17746356977836575  1.0000
  C   C23       1.0  0.9468934326575398  0.6681522931770667  0.05743262960022855  1.0000
  C   C24       1.0  0.912904032422408  0.636382559704642  0.9422264881186984  1.0000
  C   C25       1.0  0.8449329709100633  0.5785975526209002  0.9456406935761694  1.0000
  C   C26       1.0  0.8113078508965403  0.5506335140398935  0.06643801351251312  1.0000
  C   C27       1.0  0.020837399699060285  0.725334402114669  0.0530240385998293  1.0000
  F   F1        1.0  0.03343563999688315  0.80956702771603  0.15576678600023944  1.0000
  F   F2        1.0  0.06628772253966342  0.6103133217982832  0.06105206273543229  1.0000
  F   F3        1.0  0.03324409660403527  0.8095475062330253  0.9381235479841484  1.0000
  H   H16       1.0  0.7171790122955407  0.46718823434864487  0.4005032128441355  1.0000
  H   H17       1.0  0.9399072762510602  0.6568169112000013  0.26680780780945756  1.0000
  H   H18       1.0  0.939610525267488  0.6565552210821568  0.8497944275919093  1.0000
  H   H19       1.0  0.7588864199136126  0.5060713650273434  0.06980563836649178  1.0000
  H   H20       1.0  0.8192442561108796  0.5540142336683551  0.6196677965253672  1.0000
  Zn  Zn1       1.0  0.768640905795703  0.5786775903546026  0.5643139372242687  1.0000
  Zn  Zn2       1.0  0.9213523766050686  0.5786339209624123  0.564203381602494  1.0000
  C   C28       1.0  0.844927707152799  0.5728731363333182  0.8014716035996416  1.0000
  C   C29       1.0  0.8450672520232969  0.5844401945434596  0.3270458384667254  1.0000
  C   C30       1.0  0.8463280305336139  0.8421121882691898  0.5586459040878657  1.0000
  C   C31       1.0  0.8436668677667308  0.31519940954432335  0.5698716101365224  1.0000
  O   O2        1.0  0.9030205088592528  0.5863388658932454  0.37538819569435034  1.0000
  O   O3        1.0  0.902878917727377  0.5709402327801607  0.7530449651625328  1.0000
  O   O4        1.0  0.9040089150925894  0.7883541722269203  0.5569614928483388  1.0000
  O   O5        1.0  0.9018904594531959  0.3689249367952272  0.5714715706511868  1.0000
  O   O6        1.0  0.7881027708346546  0.7883865745382619  0.5570457482064688  1.0000
  O   O7        1.0  0.7869727822322721  0.57097436817124  0.7531291483935352  1.0000
  O   O8        1.0  0.7871143734310315  0.5863729512571767  0.37547081755569894  1.0000
  O   O9        1.0  0.7859843239528981  0.3689590118268906  0.5715542899007865  1.0000
