data_image0
_chemical_formula_structural       NC9NC3OH6C7F3H5C6OCH7Zn2C4O8
_chemical_formula_sum              "N2 C30 O10 H18 F3 Zn2"
_cell_length_a       15.78231758774541
_cell_length_b       9.272718291674593
_cell_length_c       9.273891588657152
_cell_angle_alpha    86.50478335773057
_cell_angle_beta     89.76748324947235
_cell_angle_gamma    89.20559360488726

_space_group_name_H-M_alt    "P 1"
_space_group_IT_number       1

loop_
  _space_group_symop_operation_xyz
  'x, y, z'

loop_
  _atom_site_type_symbol
  _atom_site_label
  _atom_site_symmetry_multiplicity
  _atom_site_fract_x
  _atom_site_fract_y
  _atom_site_fract_z
  _atom_site_occupancy
  N   N1        1.0  0.7962487828916881  0.5547710898418552  0.4244849983923884  1.0000
  C   C1        1.0  0.7480283669626181  0.46389842150110794  0.45052687019218557  1.0000
  C   C2        1.0  0.6881608363108727  0.3511033550142473  0.4828515520301116  1.0000
  C   C3        1.0  0.7083095964352623  0.20941377649067985  0.5233684209990868  1.0000
  C   C4        1.0  0.6318143603767439  0.14074620970529628  0.5430872294870885  1.0000
  C   C5        1.0  0.5696737321515404  0.24561312907189925  0.5131459281773114  1.0000
  C   C6        1.0  0.4766489669210669  0.22622576104324832  0.5187834727148846  1.0000
  C   C7        1.0  0.4224963954251095  0.34510389909922545  0.4846580783938772  1.0000
  C   C8        1.0  0.33434417900339947  0.3292067941102941  0.48928867774507206  1.0000
  C   C9        1.0  0.2794832849352293  0.451543670351237  0.45416123428449556  1.0000
  N   N2        1.0  0.23538807970622702  0.5498867223005492  0.42592187269767234  1.0000
  C   C10       1.0  0.29966384583457956  0.19425463806259866  0.5280977175681947  1.0000
  C   C11       1.0  0.35288462638214585  0.07562232102176904  0.5621573947357141  1.0000
  C   C12       1.0  0.4408526761027202  0.09108269424921091  0.5576525936420866  1.0000
  O   O1        1.0  0.6057058957853854  0.3698930799942961  0.47755341988633604  1.0000
  H   H1        1.0  0.770934145253384  0.1616304563269766  0.5369757223459419  1.0000
  H   H2        1.0  0.623469577041838  0.027837638131044347  0.5753909577825647  1.0000
  H   H3        1.0  0.44874209900254247  0.45012055801535156  0.4544525232903112  1.0000
  H   H4        1.0  0.2315935261014146  0.18079059491278038  0.5320172386335364  1.0000
  H   H5        1.0  0.32590614600512585  0.9713236147459852  0.5921569191566338  1.0000
  H   H6        1.0  0.4802611436111115  0.9971176276119359  0.5846394134976856  1.0000
  C   C13       1.0  0.017678373497829643  0.1288966808705352  0.4220253308379418  1.0000
  C   C14       1.0  0.9663578687178873  0.20987706978350687  0.32224127312732054  1.0000
  C   C15       1.0  0.9090040176610393  0.14218335727328135  0.23381099835630947  1.0000
  C   C16       1.0  0.9052261224121689  0.9910130997399192  0.2422258807790083  1.0000
  C   C17       1.0  0.9566203213474826  0.9090445496206919  0.3388910271447063  1.0000
  C   C18       1.0  0.013966566227958664  0.9757500724239386  0.42839397605814633  1.0000
  C   C19       1.0  0.8561726829676742  0.23069474723013308  0.12485167572327782  1.0000
  F   F1        1.0  0.8342257600096159  0.36283298999910807  0.17716680854123923  1.0000
  F   F2        1.0  0.7823065045066967  0.1598428878927698  0.09449430620346622  1.0000
  F   F3        1.0  0.902302045949035  0.2538191939100032  0.9987375887597377  1.0000
  H   H7        1.0  0.11725648271257544  0.20930235176910056  0.73343502452647  1.0000
  H   H8        1.0  0.9697623881288762  0.3267472143365051  0.31554348374510965  1.0000
  H   H9        1.0  0.8631024933828818  0.9357606414163094  0.17277182358334398  1.0000
  H   H10       1.0  0.953155510237055  0.7923315789094849  0.34081908425107166  1.0000
  H   H11       1.0  0.19529360568755483  0.8593922786375094  0.6024785405725479  1.0000
  C   C20       1.0  0.01722736677889225  0.5484890968550749  0.0019101215851058352  1.0000
  C   C21       1.0  0.08635330333957308  0.6086209197875669  0.07116888980597258  1.0000
  C   C22       1.0  0.1506256119266175  0.6795733714873244  0.9921094578312452  1.0000
  C   C23       1.0  0.14600135417679716  0.6907527428606519  0.8407375636397232  1.0000
  C   C24       1.0  0.0786594581494342  0.6297280339966737  0.7701358565231913  1.0000
  C   C25       1.0  0.014417569073077887  0.5561576101384977  0.8485091154940196  1.0000
  O   O2        1.0  0.217445234860837  0.7379555924097019  0.0679802109547043  1.0000
  C   C26       1.0  0.28689033273916875  0.8130652467597583  0.0017028370830176655  1.0000
  H   H12       1.0  0.8160649490570605  0.4621686274357357  0.11160187112930055  1.0000
  H   H13       1.0  0.19457221524216128  0.7452710199351686  0.776389218636818  1.0000
  H   H14       1.0  0.07794316916596972  0.63716712546309  0.6531083303155585  1.0000
  H   H15       1.0  0.8802964666590184  0.49231125204669685  0.5721352986711645  1.0000
  H   H16       1.0  0.2637170330642764  0.9108946111024077  0.9379666395105044  1.0000
  H   H17       1.0  0.3225352468844107  0.7411096893259714  0.9308676007242332  1.0000
  H   H18       1.0  0.330114699430452  0.8470485701248487  0.08694749986121275  1.0000
  Zn  Zn1       1.0  0.9229748836535349  0.5533577906270992  0.42490793766867574  1.0000
  Zn  Zn2       1.0  0.10866196292528227  0.5512883597060434  0.42551062847613497  1.0000
  C   C27       1.0  0.014971982134789332  0.5489638477981618  0.6884405913744291  1.0000
  C   C28       1.0  0.016666883697304735  0.5556841005705755  0.16197813651491688  1.0000
  C   C29       1.0  0.014682891661827794  0.8156247773544447  0.42144594538542  1.0000
  C   C30       1.0  0.016955918146349003  0.28902144001942887  0.4289728461213589  1.0000
  O   O3        1.0  0.08694608689449113  0.5573071806471017  0.21592709527760245  1.0000
  O   O4        1.0  0.08562498174327922  0.5457690259956622  0.6349486378593294  1.0000
  O   O5        1.0  0.08539058262314753  0.7611011231635572  0.41934858038366807  1.0000
  O   O6        1.0  0.08718042296569983  0.34197509352125155  0.43152704454439905  1.0000
  O   O7        1.0  0.9444563602472487  0.7626710575195874  0.4188915213871722  1.0000
  O   O8        1.0  0.9446907520254288  0.5473406920542525  0.6344915150321615  1.0000
  O   O9        1.0  0.946011863205133  0.5588787807592412  0.21546823899980883  1.0000
  O   O10       1.0  0.9462461989593958  0.34354668429904267  0.431068296262231  1.0000
