data_image0
_chemical_formula_structural       Co3Mo12P8O52
_chemical_formula_sum              "Co3 Mo12 P8 O52"
_cell_length_a       12.7846
_cell_length_b       12.8311
_cell_length_c       15.993700000000002
_cell_angle_alpha    67.358
_cell_angle_beta     67.224
_cell_angle_gamma    63.053000000000004

_space_group_name_H-M_alt    "P 1"
_space_group_IT_number       1

loop_
  _space_group_symop_operation_xyz
  'x, y, z'

loop_
  _atom_site_type_symbol
  _atom_site_label
  _atom_site_symmetry_multiplicity
  _atom_site_fract_x
  _atom_site_fract_y
  _atom_site_fract_z
  _atom_site_occupancy
  Co  Co1       1.0  0.96636  0.4727099999999998  0.6162000000000004  1.0000
  Co  Co2       1.0  0.033639999999999975  0.52729  0.3838  1.0000
  Co  Co3       1.0  0.49999999999999994  0.0  0.0  1.0000
  Mo  Mo1       1.0  0.33844999999999986  0.29563999999999985  0.8430300000000004  1.0000
  Mo  Mo2       1.0  0.7936399999999998  0.84189  0.8371600000000003  1.0000
  Mo  Mo3       1.0  0.8000000000000002  0.038819999999999896  0.8413300000000004  1.0000
  Mo  Mo4       1.0  0.5237700000000001  0.83824  0.8349700000000004  1.0000
  Mo  Mo5       1.0  0.5380599999999999  0.2988499999999998  0.8459800000000004  1.0000
  Mo  Mo6       1.0  0.3305299999999999  0.03232999999999985  0.8356400000000005  1.0000
  Mo  Mo7       1.0  0.66155  0.7043599999999999  0.1569700000000001  1.0000
  Mo  Mo8       1.0  0.20636  0.15811  0.1628400000000001  1.0000
  Mo  Mo9       1.0  0.2  0.9611799999999999  0.15867000000000012  1.0000
  Mo  Mo10      1.0  0.47623000000000004  0.16175999999999996  0.16503  1.0000
  Mo  Mo11      1.0  0.46194  0.70115  0.1540200000000001  1.0000
  Mo  Mo12      1.0  0.66947  0.9676699999999999  0.16436  1.0000
  P   P1        1.0  0.78929  0.71458  0.69001  1.0000
  P   P2        1.0  0.20571999999999996  0.3001899999999999  0.69485  1.0000
  P   P3        1.0  0.7929599999999999  0.2976099999999997  0.6816200000000004  1.0000
  P   P4        1.0  0.5928200000000001  0.09973999999999998  0.72819  1.0000
  P   P5        1.0  0.21070999999999998  0.28542  0.30999  1.0000
  P   P6        1.0  0.79428  0.69981  0.30515  1.0000
  P   P7        1.0  0.2070400000000001  0.7023899999999998  0.31838  1.0000
  P   P8        1.0  0.40717999999999993  0.90026  0.27181  1.0000
  O   O1        1.0  0.7650999999999998  0.2767999999999998  0.6025000000000003  1.0000
  O   O2        1.0  0.27350000000000024  0.3249999999999999  0.5917  1.0000
  O   O3        1.0  0.8099  0.7842  0.5865  1.0000
  O   O4        1.0  0.6359999999999999  0.14719999999999986  0.6248000000000005  1.0000
  O   O5        1.0  0.8432  0.5792000000000002  0.7041  1.0000
  O   O6        1.0  0.24519999999999997  0.3543  0.7447000000000001  1.0000
  O   O7        1.0  0.6510000000000001  0.7507  0.7346000000000001  1.0000
  O   O8        1.0  0.06859999999999987  0.35589999999999994  0.7098000000000003  1.0000
  O   O9        1.0  0.25369999999999987  0.16879999999999995  0.9058000000000003  1.0000
  O   O10       1.0  0.2424000000000001  0.1618  0.7373  1.0000
  O   O11       1.0  0.6395  0.9595999999999999  0.7617000000000003  1.0000
  O   O12       1.0  0.4526999999999999  0.14579999999999987  0.7654000000000004  1.0000
  O   O13       1.0  0.8599999999999999  0.17499999999999985  0.7405000000000005  1.0000
  O   O14       1.0  0.6725999999999999  0.3613  0.7448000000000002  1.0000
  O   O15       1.0  0.8481999999999991  0.7519  0.7372  1.0000
  O   O16       1.0  0.6650000000000003  0.7599999999999999  0.9009000000000004  1.0000
  O   O17       1.0  0.8928999999999999  0.6079  0.4973000000000002  1.0000
  O   O18       1.0  0.8695  0.37379999999999997  0.6301  1.0000
  O   O19       1.0  0.6799999999999997  0.17579999999999985  0.9115000000000004  1.0000
  O   O20       1.0  0.6423000000000001  0.14589999999999984  0.7773000000000004  1.0000
  O   O21       1.0  0.8679  0.957  0.7423  1.0000
  O   O22       1.0  0.45219999999999994  0.3701999999999998  0.7483000000000003  1.0000
  O   O23       1.0  0.4374999999999997  0.9459999999999998  0.7388000000000005  1.0000
  O   O24       1.0  0.4426999999999999  0.9493999999999997  0.9181000000000005  1.0000
  O   O25       1.0  0.6898999999999996  0.9492  0.9232000000000005  1.0000
  O   O26       1.0  0.4481  0.1882  0.9269  1.0000
  O   O27       1.0  0.23489999999999997  0.7232  0.3975000000000001  1.0000
  O   O28       1.0  0.7265000000000003  0.6749999999999998  0.40830000000000005  1.0000
  O   O29       1.0  0.1900999999999999  0.2157999999999999  0.41350000000000015  1.0000
  O   O30       1.0  0.36399999999999977  0.8528  0.3752000000000002  1.0000
  O   O31       1.0  0.15680000000000005  0.4208  0.2959  1.0000
  O   O32       1.0  0.7548000000000001  0.6456999999999999  0.2553000000000001  1.0000
  O   O33       1.0  0.349  0.2493  0.2654000000000001  1.0000
  O   O34       1.0  0.9314  0.6440999999999999  0.2902  1.0000
  O   O35       1.0  0.7462999999999999  0.8312  0.09420000000000006  1.0000
  O   O36       1.0  0.7576000000000012  0.8381999999999998  0.2627  1.0000
  O   O37       1.0  0.36049999999999993  0.04039999999999997  0.23830000000000012  1.0000
  O   O38       1.0  0.5472999999999997  0.8542  0.23460000000000011  1.0000
  O   O39       1.0  0.14000000000000012  0.8249999999999997  0.25950000000000006  1.0000
  O   O40       1.0  0.32739999999999997  0.6387  0.2552  1.0000
  O   O41       1.0  0.15179999999999993  0.24809999999999996  0.26280000000000003  1.0000
  O   O42       1.0  0.33500000000000013  0.24  0.0991  1.0000
  O   O43       1.0  0.1071  0.3921  0.5027  1.0000
  O   O44       1.0  0.13049999999999995  0.6262  0.3699000000000001  1.0000
  O   O45       1.0  0.32  0.8242  0.08850000000000002  1.0000
  O   O46       1.0  0.3577000000000001  0.8541  0.2227000000000001  1.0000
  O   O47       1.0  0.1321  0.04299999999999998  0.2577  1.0000
  O   O48       1.0  0.5477999999999998  0.6298  0.2517  1.0000
  O   O49       1.0  0.5625  0.05399999999999995  0.2612000000000001  1.0000
  O   O50       1.0  0.5573  0.050599999999999985  0.0819  1.0000
  O   O51       1.0  0.31009999999999993  0.0508  0.07680000000000005  1.0000
  O   O52       1.0  0.5519  0.8118  0.0731  1.0000
