data_image0
_chemical_formula_structural       NC5NC3F3CH3C9H10C6OCH7Zn2C4O8
_chemical_formula_sum              "N2 C29 F3 H20 O9 Zn2"
_cell_length_a       13.85151926108384
_cell_length_b       10.297183801781406
_cell_length_c       9.273891588657152
_cell_angle_alpha    86.04956984296379
_cell_angle_beta     89.68013377981825
_cell_angle_gamma    89.99762972311773

_space_group_name_H-M_alt    "P 1"
_space_group_IT_number       1

loop_
  _space_group_symop_operation_xyz
  'x, y, z'

loop_
  _atom_site_type_symbol
  _atom_site_label
  _atom_site_symmetry_multiplicity
  _atom_site_fract_x
  _atom_site_fract_y
  _atom_site_fract_z
  _atom_site_occupancy
  N   N1        1.0  0.9149840664713117  0.4087547669042622  0.40936662374930655  1.0000
  C   C1        1.0  0.8424213188240439  0.4010834960197691  0.47182951365353415  1.0000
  C   C2        1.0  0.7521475384294078  0.3915393860436871  0.5495422844325171  1.0000
  C   C3        1.0  0.6649035135950572  0.3992319926285577  0.4740228909682847  1.0000
  C   C4        1.0  0.5770955490008439  0.3915393740394477  0.5495422643825485  1.0000
  C   C5        1.0  0.48740206635276623  0.4010835113314468  0.47182960770176496  1.0000
  N   N2        1.0  0.41530588046490385  0.40875473363211806  0.4093667292061902  1.0000
  C   C6        1.0  0.5765217145930936  0.3752566345777743  0.700757510319598  1.0000
  C   C7        1.0  0.6637701795268812  0.3647009977060501  0.7775403084799266  1.0000
  C   C8        1.0  0.6631613295024016  0.3519944173400857  0.9405479447356381  1.0000
  F   F1        1.0  0.7439048220099354  0.28502277811096643  0.9921773809766016  1.0000
  F   F2        1.0  0.5820360069788921  0.28502275135479915  0.9921774802747888  1.0000
  F   F3        1.0  0.6629644832854887  0.47475238301528644  0.9921989594117153  1.0000
  C   C9        1.0  0.7515920413631754  0.37525654893558325  0.7007575299774644  1.0000
  H   H1        1.0  0.6653407080450283  0.4119829709636267  0.35694661127325555  1.0000
  H   H2        1.0  0.5081831281545202  0.37106096552252815  0.7584046965417821  1.0000
  H   H3        1.0  0.8194998818292317  0.371060892317409  0.758404655542888  1.0000
  C   C10       1.0  0.1651522035576716  0.027280863309271822  0.4095708859765035  1.0000
  C   C11       1.0  0.16290458343354963  0.03590799221730424  0.2578938818039471  1.0000
  C   C12       1.0  0.16175283861187895  0.9237114352484991  0.18018531706137408  1.0000
  C   C13       1.0  0.1628954702283978  0.8007321210251486  0.2573060041951647  1.0000
  C   C14       1.0  0.16514694017584566  0.7902187709097281  0.40917485761351724  1.0000
  C   C15       1.0  0.16625969322948686  0.9039612124332657  0.48431593333844664  1.0000
  C   C16       1.0  0.15932161163049696  0.9424744791459787  0.016135926906310164  1.0000
  C   C17       1.0  0.10309206758272385  0.8431053781482546  0.9358978999400297  1.0000
  C   C18       1.0  0.21309496669575476  0.8433763713138918  0.9313190054295916  1.0000
  H   H4        1.0  0.16602745060267332  0.3514950078129182  0.46801690075060876  1.0000
  H   H5        1.0  0.16203708079041196  0.13066090529016774  0.19933818993426566  1.0000
  H   H6        1.0  0.16204971583200134  0.712669682941247  0.20037639255878914  1.0000
  H   H7        1.0  0.1679932954730583  0.8965777584517036  0.6013379271659085  1.0000
  H   H8        1.0  0.16938650862287077  0.5631455629274859  0.696012358912363  1.0000
  H   H9        1.0  0.1585410588638661  0.04276145921591735  0.9634075690138463  1.0000
  H   H10       1.0  0.07063188081300065  0.7600010404201851  0.0014934334576701676  1.0000
  H   H11       1.0  0.06941393362646145  0.8831494373731572  0.83391757767681  1.0000
  H   H12       1.0  0.24745563114805558  0.7604374532113674  0.9941338588744172  1.0000
  H   H13       1.0  0.24370869122578517  0.8835764359807519  0.8266611909156105  1.0000
  C   C19       1.0  0.16673114098866326  0.405309384802978  0.9860993406545178  1.0000
  C   C20       1.0  0.24579171696640356  0.4601780325635709  0.054644572010853265  1.0000
  C   C21       1.0  0.3193761402272297  0.5247469205574884  0.9748013218332581  1.0000
  C   C22       1.0  0.3141631164817115  0.5347726695035182  0.8233555045293319  1.0000
  C   C23       1.0  0.2371307857654266  0.4791174511379195  0.7534684838152357  1.0000
  C   C24       1.0  0.16356796417822572  0.4121901981350982  0.8326464094717005  1.0000
  O   O1        1.0  0.39580022386985947  0.5780161478838608  0.04998029075279353  1.0000
  C   C25       1.0  0.47529915069517403  0.6463823158906203  0.9828684449951308  1.0000
  H   H14       1.0  0.9371003202958933  0.32552287696992477  0.09715796228063867  1.0000
  H   H15       1.0  0.3697756677703523  0.5843777965551855  0.7584076287184232  1.0000
  H   H16       1.0  0.23635176500762423  0.4858125449828037  0.6363838325013575  1.0000
  H   H17       1.0  0.010434719589974328  0.353323620542181  0.5572342955330454  1.0000
  H   H18       1.0  0.44938391896892327  0.7342897573358662  0.9184272354219657  1.0000
  H   H19       1.0  0.5155533318646617  0.5819109345545806  0.9124892461839508  1.0000
  H   H20       1.0  0.524717594991031  0.6774328384974893  0.06769587988020453  1.0000
  Zn  Zn1       1.0  0.05936610360237293  0.40875135687308045  0.40937496402240114  1.0000
  Zn  Zn2       1.0  0.2709237820382942  0.4087476434785419  0.40937014681120565  1.0000
  C   C26       1.0  0.16416377050446704  0.40571451216142945  0.6726335912177772  1.0000
  C   C27       1.0  0.16612842479950943  0.41178612837041406  0.14611166018487776  1.0000
  C   C28       1.0  0.16516441410092364  0.6459605765217398  0.4035059223573598  1.0000
  C   C29       1.0  0.16512770873686566  0.17153850390370073  0.41523940670356585  1.0000
  O   O2        1.0  0.24621118420409774  0.41395270616177826  0.19981143118489553  1.0000
  O   O3        1.0  0.24464839547844108  0.4035441326246485  0.6189297496505288  1.0000
  O   O4        1.0  0.24545533995657998  0.5975458801229083  0.4016072522463905  1.0000
  O   O5        1.0  0.245404167939413  0.2199509670791233  0.41713382051170544  1.0000
  O   O6        1.0  0.08488564550702996  0.5975480332751191  0.40161129031596277  1.0000
  O   O7        1.0  0.08407870130085371  0.40354784588588166  0.6189337100558927  1.0000
  O   O8        1.0  0.08564149656632682  0.4139563600687705  0.19981365864711886  1.0000
  O   O9        1.0  0.08483447989396381  0.2199546125731302  0.4171361560453195  1.0000
