data_image0
_chemical_formula_structural       NC8Cl2C7NH8C6H6C12H10Zn2C4O8
_chemical_formula_sum              "N2 C37 Cl2 H24 Zn2 O8"
_cell_length_a       18.42689100911083
_cell_length_b       10.302888698854447
_cell_length_c       13.024585202197208
_cell_angle_alpha    85.80961696087208
_cell_angle_beta     93.92807891465861
_cell_angle_gamma    90.024064591098

_space_group_name_H-M_alt    "P 1"
_space_group_IT_number       1

loop_
  _space_group_symop_operation_xyz
  'x, y, z'

loop_
  _atom_site_type_symbol
  _atom_site_label
  _atom_site_symmetry_multiplicity
  _atom_site_fract_x
  _atom_site_fract_y
  _atom_site_fract_z
  _atom_site_occupancy
  N   N1        1.0  0.6276865023015256  0.4152019941711819  0.8639157737417041  1.0000
  C   C1        1.0  0.5755541800804672  0.3526170663237879  0.8594958562104869  1.0000
  C   C2        1.0  0.5107063465627065  0.274769033809333  0.8539985563112882  1.0000
  C   C3        1.0  0.45094273101574417  0.31596136471766956  0.7877801106093271  1.0000
  C   C4        1.0  0.3880336120020734  0.24032428083277435  0.7823048239598105  1.0000
  C   C5        1.0  0.38316260505527455  0.12289938837883518  0.8443196046459118  1.0000
  C   C6        1.0  0.4446753999836566  0.08109571715968511  0.9088431047180126  1.0000
  C   C7        1.0  0.5075456971600159  0.1570435411738809  0.9140950245350574  1.0000
  C   C8        1.0  0.3141868106309826  0.04091392291773511  0.8338054731362952  1.0000
  Cl  Cl1       1.0  0.3184442804784278  0.9619186611042028  0.7161497116926272  1.0000
  Cl  Cl2       1.0  0.30908839046264297  0.9143251881219305  0.9350936752294314  1.0000
  C   C9        1.0  0.2458886313669945  0.12460334273836969  0.836481786835173  1.0000
  C   C10       1.0  0.18415258902570417  0.11179719543757405  0.7676103205573203  1.0000
  C   C11       1.0  0.12190213353499459  0.1874055639969407  0.7744248186907303  1.0000
  C   C12       1.0  0.11958307839571147  0.27544226467634886  0.8509034789337995  1.0000
  C   C13       1.0  0.17956220325571426  0.28693357192585606  0.9213164570710805  1.0000
  C   C14       1.0  0.2418534366547704  0.21153014865363567  0.914766477169207  1.0000
  C   C15       1.0  0.05537073845795978  0.35299054844384575  0.8577786689999161  1.0000
  N   N2        1.0  0.0037493293888638786  0.4153346772718027  0.8633056552707566  1.0000
  H   H1        1.0  0.45304302374032823  0.40629461089735797  0.7399763611100074  1.0000
  H   H2        1.0  0.34284345376669717  0.27354883099682237  0.72937711447409  1.0000
  H   H3        1.0  0.4451331195042532  0.9897406705807609  0.9552251962605247  1.0000
  H   H4        1.0  0.5539055476634989  0.12345783726223813  0.9647286120785834  1.0000
  H   H5        1.0  0.18304141501384177  0.043372629119100135  0.708506959385258  1.0000
  H   H6        1.0  0.07536068493680327  0.17660114996451107  0.7202573554342165  1.0000
  H   H7        1.0  0.17810473530898924  0.3537638753871406  0.9816329349436067  1.0000
  H   H8        1.0  0.2872182704031588  0.22100469751456897  0.9710936399654467  1.0000
  C   C16       1.0  0.8156483362498747  0.03402095442363031  0.8635814813593746  1.0000
  C   C17       1.0  0.8896677587146958  0.029875725889504406  0.8976128225298666  1.0000
  C   C18       1.0  0.9263936525617089  0.9109397714621326  0.914497862994731  1.0000
  C   C19       1.0  0.8898595137410773  0.7948606984162412  0.8977008803528611  1.0000
  C   C20       1.0  0.8157948717317169  0.7965057794291555  0.8636488356995331  1.0000
  C   C21       1.0  0.7790772539600711  0.916661069896662  0.8467675030553997  1.0000
  H   H9        1.0  0.7876038924167403  0.36288662913449143  0.8506865035264765  1.0000
  H   H10       1.0  0.9192768164642819  0.11847417487893266  0.9112259588268915  1.0000
  H   H11       1.0  0.9834365197829825  0.9087167197778565  0.9407237852923468  1.0000
  H   H12       1.0  0.9195994370483486  0.7039186133009363  0.9113739892859979  1.0000
  H   H13       1.0  0.722003297003636  0.9189281969980283  0.8205271952291329  1.0000
  H   H14       1.0  0.676291451520719  0.5924405071487905  0.7995097054415485  1.0000
  C   C22       1.0  0.8008477459254412  0.4136999506696777  0.5614202710389434  1.0000
  C   C23       1.0  0.7848257741880892  0.5174385126118017  0.48702567135097496  1.0000
  C   C24       1.0  0.8096181374811257  0.5154595779806805  0.38810517371989334  1.0000
  C   C25       1.0  0.8503730052483907  0.4093940994130892  0.3615824084405071  1.0000
  C   C26       1.0  0.8670844172393934  0.3063944800325489  0.43590276913141035  1.0000
  C   C27       1.0  0.8423285644241328  0.3082644751290277  0.5348664615574801  1.0000
  C   C28       1.0  0.8776618290602062  0.4082055159697883  0.2573379587046636  1.0000
  C   C29       1.0  0.9533411235242616  0.40399950676882246  0.2495325925055203  1.0000
  C   C30       1.0  0.9825126409742604  0.41089429502889  0.15326154755849397  1.0000
  C   C31       1.0  0.9366179564600701  0.4223519614720206  0.06348843586677753  1.0000
  C   C32       1.0  0.8613112708510189  0.4253442368847788  0.06955046495044813  1.0000
  C   C33       1.0  0.830595437483691  0.41682678404725365  0.1658100205486883  1.0000
  H   H15       1.0  0.7733008359155402  0.3123174193014602  0.8113983972237282  1.0000
  H   H16       1.0  0.7532653731524007  0.6003033257226877  0.5052670067847989  1.0000
  H   H17       1.0  0.7971415608998131  0.5967309518799901  0.33213521046842054  1.0000
  H   H18       1.0  0.8989491789642686  0.22420059945271584  0.4169796380443355  1.0000
  H   H19       1.0  0.8557431613658685  0.22713129090027717  0.5905167687793809  1.0000
  H   H20       1.0  0.9899992868124088  0.3976773947980372  0.3184194077567689  1.0000
  H   H21       1.0  0.04088257790269889  0.4083394897637435  0.14828542500597042  1.0000
  H   H22       1.0  0.9594164918219724  0.4280850668254899  0.9888850098927233  1.0000
  H   H23       1.0  0.8269518472867712  0.4319461447192328  0.998473966036129  1.0000
  H   H24       1.0  0.6519606576249296  0.4620110199013492  0.08156931489730467  1.0000
  Zn  Zn1       1.0  0.7362104054623339  0.41523684009041406  0.8637456502650047  1.0000
  Zn  Zn2       1.0  0.8952258353309831  0.41528925642087716  0.8634842111713514  1.0000
  C   C34       1.0  0.8249698961431337  0.4110637076406393  0.05156698759167208  1.0000
  C   C35       1.0  0.8064680863799034  0.41946402806304794  0.6756629721382945  1.0000
  C   C36       1.0  0.8155616035685526  0.6523586935799766  0.859535334327563  1.0000
  C   C37       1.0  0.8158763270942506  0.1781674825842499  0.867694680218172  1.0000
  O   O1        1.0  0.8686998498096054  0.42141273287987313  0.7139046509732869  1.0000
  O   O2        1.0  0.883427149848459  0.4091538046629013  0.013126586213564216  1.0000
  O   O3        1.0  0.8758290737903399  0.6040025626682108  0.8580596690037294  1.0000
  O   O4        1.0  0.8762978678105818  0.22656398374475462  0.8689714911139358  1.0000
  O   O5        1.0  0.7551383187183068  0.6039621127500352  0.8582583704062243  1.0000
  O   O6        1.0  0.7627363923722309  0.40911491426768415  0.013325232884093817  1.0000
  O   O7        1.0  0.7480090314763831  0.4213737908422039  0.7141020603933592  1.0000
  O   O8        1.0  0.7556070532700739  0.2265250328203925  0.8691689776869977  1.0000
