data_image0
_chemical_formula_structural       NC9NC3OH6C6NCH9C6H4Zn2C4O8
_chemical_formula_sum              "N3 C29 O9 H19 Zn2"
_cell_length_a       15.78231758774541
_cell_length_b       9.273386996610926
_cell_length_c       10.681121600428286
_cell_angle_alpha    85.46621756597041
_cell_angle_beta     90.08384876913414
_cell_angle_gamma    89.03191128213776

_space_group_name_H-M_alt    "P 1"
_space_group_IT_number       1

loop_
  _space_group_symop_operation_xyz
  'x, y, z'

loop_
  _atom_site_type_symbol
  _atom_site_label
  _atom_site_symmetry_multiplicity
  _atom_site_fract_x
  _atom_site_fract_y
  _atom_site_fract_z
  _atom_site_occupancy
  N   N1        1.0  0.788201874121093  0.5700785388493632  0.6187167953956652  1.0000
  C   C1        1.0  0.7402315183835447  0.4789098038403274  0.6420690839312545  1.0000
  C   C2        1.0  0.6806743745027581  0.3657472431300741  0.6710552881382733  1.0000
  C   C3        1.0  0.7012127379038875  0.22359683102089467  0.7073900588639528  1.0000
  C   C4        1.0  0.6249065934725186  0.15470517670813247  0.7250711989323451  1.0000
  C   C5        1.0  0.5624777662990277  0.2599127506411667  0.698219115645631  1.0000
  C   C6        1.0  0.4695066226933653  0.24046147817818864  0.7032721433554097  1.0000
  C   C7        1.0  0.4150267336298928  0.3597274501023431  0.6726728051375186  1.0000
  C   C8        1.0  0.32691851203321587  0.3437778730161565  0.6768230716010133  1.0000
  C   C9        1.0  0.2717207465453105  0.4665139502618994  0.6453254779362552  1.0000
  N   N2        1.0  0.2273547354141826  0.5651779212599908  0.6200042348277119  1.0000
  C   C10       1.0  0.2926099859082073  0.2083848133382309  0.7116201784069494  1.0000
  C   C11       1.0  0.34615742335387706  0.08936542045889939  0.7421604547930323  1.0000
  C   C12       1.0  0.43408268217248686  0.10487683707846138  0.7381229763497266  1.0000
  O   O1        1.0  0.5981680177021225  0.3845974013521023  0.6663019291758808  1.0000
  H   H1        1.0  0.7639684876061421  0.175658612479221  0.7195944139499828  1.0000
  H   H2        1.0  0.6168723308809666  0.04142922586228392  0.7540401052281682  1.0000
  H   H3        1.0  0.44098308800725844  0.4650872576920075  0.6455899330922985  1.0000
  H   H4        1.0  0.22457691968653082  0.1948763503891069  0.7151331916749146  1.0000
  H   H5        1.0  0.31946631559604766  0.9847259071931952  0.7690585827322379  1.0000
  H   H6        1.0  0.4737499153390352  0.010605096173974765  0.7623209811715123  1.0000
  C   C13       1.0  0.010388131698730652  0.14394512882120947  0.619983535792046  1.0000
  C   C14       1.0  0.025266986132953067  0.22725469100901252  0.5067974844159946  1.0000
  C   C15       1.0  0.03216726537565595  0.1626747991713542  0.39358104361813134  1.0000
  C   C16       1.0  0.02429307240878353  0.012462004320590733  0.39065576161229565  1.0000
  C   C17       1.0  0.010907528661074473  0.9281728635855131  0.503452856283805  1.0000
  C   C18       1.0  0.005176613472625425  0.9913001416969548  0.6187483720038929  1.0000
  N   N3        1.0  0.030477011874309845  0.9428536815905093  0.2750993377343458  1.0000
  C   C19       1.0  0.0445933706520627  0.020592650161825883  0.15293558751812997  1.0000
  H   H7        1.0  0.027700322838972478  0.4058966600628728  0.8256322697343553  1.0000
  H   H8        1.0  0.029589048406904565  0.34385235356304045  0.5052737657814033  1.0000
  H   H9        1.0  0.042853573921537866  0.23115766620279385  0.3085486293760902  1.0000
  H   H10       1.0  0.006907837094965117  0.8118164273789307  0.5014655731796804  1.0000
  H   H11       1.0  0.0363766155653251  0.8595900262347467  0.9238523251845865  1.0000
  H   H12       1.0  0.02448614560166118  0.8305534123358119  0.27767860778095943  1.0000
  H   H13       1.0  0.9920618520254776  0.09975242170615051  0.13102326815241772  1.0000
  H   H14       1.0  0.10592692480948362  0.07745996475166939  0.1533174719582313  1.0000
  H   H15       1.0  0.04672953612713336  0.9431322176087581  0.07880468819099828  1.0000
  C   C20       1.0  0.007782400152457346  0.5676226245111391  0.2516207137169393  1.0000
  C   C21       1.0  0.9476240165341757  0.48805754294227305  0.19013738264043753  1.0000
  C   C22       1.0  0.9476239630591142  0.4880576360447322  0.05925524239758873  1.0000
  C   C23       1.0  0.007782333102321454  0.5676226959792336  0.9871111490948975  1.0000
  C   C24       1.0  0.06789106537265144  0.6471218396698212  0.04859384999606875  1.0000
  C   C25       1.0  0.06789105466870926  0.6471218174185471  0.17948614865994286  1.0000
  H   H16       1.0  0.9004690354870505  0.42569067155829327  0.24312652577331176  1.0000
  H   H17       1.0  0.9004690173719117  0.42569073966970467  0.014622496396898835  1.0000
  H   H18       1.0  0.11505220380522835  0.7094969300314589  0.9956490483500122  1.0000
  H   H19       1.0  0.11505216142202629  0.7094968799305075  0.22407341578298068  1.0000
  Zn  Zn1       1.0  0.914931923723407  0.5686604726013442  0.6190955539998404  1.0000
  Zn  Zn2       1.0  0.1006247297418527  0.5665842119917388  0.6196357304597886  1.0000
  C   C26       1.0  0.00781582823855853  0.5618749617419418  0.8480960970444531  1.0000
  C   C27       1.0  0.00774284179014461  0.5733715206083057  0.39063531357319925  1.0000
  C   C28       1.0  0.006157354146886008  0.8311320696289572  0.6139915129131974  1.0000
  C   C29       1.0  0.009401263178938411  0.3041126800064522  0.6247399668121498  1.0000
  O   O2        1.0  0.07819905649257719  0.5745066782002939  0.4374948865257123  1.0000
  O   O3        1.0  0.07829616335925288  0.5591628819626817  0.801646146621717  1.0000
  O   O4        1.0  0.07695597459397135  0.7765914124240794  0.6126050336566824  1.0000
  O   O5        1.0  0.0795391818300104  0.35707815876838134  0.6265359053952355  1.0000
  O   O6        1.0  0.9360174082673988  0.7781665265347986  0.6121953788734684  1.0000
  O   O7        1.0  0.9373575863677078  0.5607397294983345  0.801236422539883  1.0000
  O   O8        1.0  0.9372604798666884  0.5760834754579729  0.4370836568947474  1.0000
  O   O9        1.0  0.9386006052641195  0.3586549457066712  0.6261247696688572  1.0000
