data_image0
_chemical_formula_structural       NC5NC3BrH3C6NH7C6OCH6Zn2C4O8
_chemical_formula_sum              "N3 C25 Br1 H16 O9 Zn2"
_cell_length_a       13.839083392302014
_cell_length_b       9.274771166103582
_cell_length_c       9.273891588657152
_cell_angle_alpha    85.97469330815719
_cell_angle_beta     89.68090098130043
_cell_angle_gamma    90.6230172981901

_space_group_name_H-M_alt    "P 1"
_space_group_IT_number       1

loop_
  _space_group_symop_operation_xyz
  'x, y, z'

loop_
  _atom_site_type_symbol
  _atom_site_label
  _atom_site_symmetry_multiplicity
  _atom_site_fract_x
  _atom_site_fract_y
  _atom_site_fract_z
  _atom_site_occupancy
  N   N1        1.0  0.9267865702547176  0.564912893096033  0.4071938849672616  1.0000
  C   C1        1.0  0.8543297970104824  0.5012715495584559  0.40977458408612755  1.0000
  C   C2        1.0  0.7640552825986244  0.4220797128309814  0.4129857083657287  1.0000
  C   C3        1.0  0.6770425933080387  0.49827945586550376  0.409896103792571  1.0000
  C   C4        1.0  0.5884626234047388  0.42355243013717864  0.41292593537628175  1.0000
  C   C5        1.0  0.49926429411542944  0.502103559833414  0.4097408302770922  1.0000
  N   N2        1.0  0.42756044164763213  0.5652525082071682  0.40718005843688987  1.0000
  C   C6        1.0  0.586827286623079  0.27231415998716235  0.4190580497179788  1.0000
  C   C7        1.0  0.6733940649570885  0.19599314885220576  0.42215247988428817  1.0000
  C   C8        1.0  0.7621649662504416  0.2700060527273871  0.41915162330082567  1.0000
  Br  Br1       1.0  0.8787821867725271  0.15991604677051963  0.42361542689251874  1.0000
  H   H1        1.0  0.6782547511798787  0.615476313588804  0.4051440347536148  1.0000
  H   H2        1.0  0.5187127838318478  0.21346174426398254  0.4214440148933083  1.0000
  H   H3        1.0  0.671420489950508  0.07904549333588597  0.4268940672807642  1.0000
  C   C9        1.0  0.17420864064230845  0.14149121594911887  0.4079727095904122  1.0000
  C   C10       1.0  0.15244716685979842  0.2236218411223707  0.27907730110077433  1.0000
  C   C11       1.0  0.13971053667657096  0.15739306810594345  0.14936385460373014  1.0000
  C   C12       1.0  0.14878949262943286  0.007647753755186453  0.14760628595141867  1.0000
  C   C13       1.0  0.16877065166508554  0.9241805119165168  0.27473108921129596  1.0000
  C   C14       1.0  0.1801475058545534  0.988663213153537  0.4064137761378077  1.0000
  N   N3        1.0  0.1185479512202745  0.24261081128157394  0.019051787791547484  1.0000
  H   H4        1.0  0.28179601503285845  0.2240716120843453  0.723417931786845  1.0000
  H   H5        1.0  0.1475770740985647  0.3402062494032603  0.27852376390504197  1.0000
  H   H6        1.0  0.13944727908903753  0.9552534216527652  0.047804863091097445  1.0000
  H   H7        1.0  0.17304425163381043  0.8079821366321644  0.2706029525744891  1.0000
  H   H8        1.0  0.24868759007538466  0.693580431030996  0.6210283445289875  1.0000
  H   H9        1.0  0.11189053878928368  0.3546797753719262  0.019005155795166935  1.0000
  H   H10       1.0  0.10928798981753231  0.19425513714531784  0.9216207713179534  1.0000
  C   C15       1.0  0.17873426788599953  0.5612579892485028  0.983924882168322  1.0000
  C   C16       1.0  0.25829376704402884  0.6222382093255696  0.05238428645569293  1.0000
  C   C17       1.0  0.33244774117224396  0.6939859318511092  0.9724405745393033  1.0000
  C   C18       1.0  0.3273081189397977  0.7051150602118812  0.8209796190976535  1.0000
  C   C19       1.0  0.24977256940656667  0.6432628029226821  0.751179568274027  1.0000
  C   C20       1.0  0.1756218421804714  0.5688963488900043  0.830461549986123  1.0000
  O   O1        1.0  0.40935590452191595  0.7531883539700619  0.04753622743854446  1.0000
  C   C21       1.0  0.48945931131391696  0.8291566191531905  0.9803179678634516  1.0000
  H   H11       1.0  0.9482743381453074  0.4725065906181308  0.09511148349851473  1.0000
  H   H12       1.0  0.38335739822013776  0.7602347120394666  0.7559545888766142  1.0000
  H   H13       1.0  0.021891597606559895  0.5034265204905146  0.5551434085424916  1.0000
  H   H14       1.0  0.464205560702057  0.9267521104772507  0.9157434764341201  1.0000
  H   H15       1.0  0.5292475603570641  0.7575944371177368  0.9100359296471252  1.0000
  H   H16       1.0  0.5391643258747194  0.8636688949640472  0.06509670312051075  1.0000
  Zn  Zn1       1.0  0.07129903744157273  0.5650071064048088  0.4071982320924452  1.0000
  Zn  Zn2       1.0  0.28304784022936125  0.5651465785675498  0.40718756191275474  1.0000
  C   C22       1.0  0.17616773404331876  0.5617061030895574  0.6704585862834999  1.0000
  C   C23       1.0  0.17818146815665492  0.5684494047188962  0.14392734572661858  1.0000
  C   C24       1.0  0.1790410661562609  0.8284778115186002  0.4009646765993393  1.0000
  C   C25       1.0  0.17530805135708238  0.30167596388683093  0.41342133544916626  1.0000
  O   O2        1.0  0.2583534665220715  0.5709095453897353  0.1976215964401451  1.0000
  O   O3        1.0  0.2567081713571149  0.5593507266283966  0.6167558242340085  1.0000
  O   O4        1.0  0.2590273346077978  0.7747722677834079  0.3991375827444785  1.0000
  O   O5        1.0  0.25603423148554616  0.3554880135307492  0.4152397298415069  1.0000
  O   O6        1.0  0.09831257392595227  0.7746656713955162  0.39914606415974974  1.0000
  O   O7        1.0  0.09599342310246395  0.5592458625974335  0.6167642256069505  1.0000
  O   O8        1.0  0.09763872435071086  0.5708046154558166  0.197628264960241  1.0000
  O   O9        1.0  0.09531948884059238  0.35538307425471266  0.4152465064458281  1.0000
