data_image0
_chemical_formula_structural       NC9NC3OH6C7NH5C6SCH7Zn2C4O8
_chemical_formula_sum              "N3 C30 O9 H18 S1 Zn2"
_cell_length_a       15.78231758774541
_cell_length_b       10.302819778424748
_cell_length_c       10.302812801239593
_cell_angle_alpha    85.56070422118889
_cell_angle_beta     90.08384720459999
_cell_angle_gamma    89.6314472413266

_space_group_name_H-M_alt    "P 1"
_space_group_IT_number       1

loop_
  _space_group_symop_operation_xyz
  'x, y, z'

loop_
  _atom_site_type_symbol
  _atom_site_label
  _atom_site_symmetry_multiplicity
  _atom_site_fract_x
  _atom_site_fract_y
  _atom_site_fract_z
  _atom_site_occupancy
  N   N1        1.0  0.7978583978599121  0.41284202881125814  0.5703703098293247  1.0000
  C   C1        1.0  0.7493273240383891  0.33080344837510145  0.5944422888812575  1.0000
  C   C2        1.0  0.6890741927205339  0.22897362877442798  0.6243218163610713  1.0000
  C   C3        1.0  0.7087382837455035  0.10105896574628906  0.6617759333980646  1.0000
  C   C4        1.0  0.632008432695169  0.03906651270443274  0.6800021921545976  1.0000
  C   C5        1.0  0.5702266671389095  0.13373800304758743  0.6523231261081395  1.0000
  C   C6        1.0  0.47713589172808357  0.11623469140443254  0.6575322994772512  1.0000
  C   C7        1.0  0.42338952811428615  0.22355669198210126  0.6259896293283107  1.0000
  C   C8        1.0  0.33518321130535594  0.20920439606642363  0.6302681850293383  1.0000
  C   C9        1.0  0.2807403135707408  0.3196489859240348  0.59779952071857  1.0000
  N   N2        1.0  0.23698111872209549  0.40843218687968985  0.5716976165075367  1.0000
  C   C10       1.0  0.3000419727686561  0.08737036583111002  0.6661383889646948  1.0000
  C   C11       1.0  0.3528574013078246  0.9802702504729228  0.6976202012421926  1.0000
  C   C12       1.0  0.440878060505879  0.9942282657979459  0.6934579128382401  1.0000
  O   O1        1.0  0.606683770669629  0.24593602515863489  0.6194224068178174  1.0000
  H   H1        1.0  0.771199197439303  0.05792155249878705  0.6743559717706822  1.0000
  H   H2        1.0  0.6232774852802927  0.9371346585030472  0.7098636151967113  1.0000
  H   H3        1.0  0.44999388040006183  0.31836517045243884  0.5980715302621713  1.0000
  H   H4        1.0  0.2319258249998979  0.07521471702851623  0.6697599813954536  1.0000
  H   H5        1.0  0.3255227256915754  0.8861099319647653  0.7253478611552746  1.0000
  H   H6        1.0  0.47996549106781583  0.9093974320850897  0.7184019724981241  1.0000
  C   C13       1.0  0.01742379500508705  0.02938404437370678  0.571039554952746  1.0000
  C   C14       1.0  0.9679659313795825  0.01998172282539647  0.6845785063961376  1.0000
  C   C15       1.0  0.9433601568918084  0.8982013991788796  0.7410652084888127  1.0000
  C   C16       1.0  0.9679659997653871  0.7846807123279768  0.6845785108574995  1.0000
  C   C17       1.0  0.01742380897162832  0.7918800714157288  0.5710395935825296  1.0000
  C   C18       1.0  0.041894350202469344  0.9147391624231161  0.5148633525081772  1.0000
  C   C19       1.0  0.8926586782525114  0.8896917491158898  0.8574593181653979  1.0000
  N   N3        1.0  0.8519112801130979  0.8828528052620114  0.9510020026398696  1.0000
  H   H7        1.0  0.03615722704593583  0.36026784570864595  0.5280332075233349  1.0000
  H   H8        1.0  0.9484603013138705  0.10713222419734847  0.7293567939656505  1.0000
  H   H9        1.0  0.9484604070652211  0.6909826190110068  0.7293567634426819  1.0000
  H   H10       1.0  0.08003450697243016  0.9211404564045044  0.42730620129199504  1.0000
  H   H11       1.0  0.0361573047778376  0.46728476434110294  0.5280333064319358  1.0000
  C   C20       1.0  0.017423825889613775  0.41063208853027966  0.18979112019535016  1.0000
  C   C21       1.0  0.9888483567248958  0.5403900376010777  0.17850747661967503  1.0000
  C   C22       1.0  0.9744116592044569  0.6047642005544729  0.055916846299461476  1.0000
  C   C23       1.0  0.9888482803369509  0.5403899020824074  0.9433563066995304  1.0000
  C   C24       1.0  0.017423770929447135  0.41063208033293286  0.952288023658766  1.0000
  C   C25       1.0  0.03154576284388241  0.3463761245028456  0.07604485459169186  1.0000
  S   S1        1.0  0.9380762928241517  0.7706435478753224  0.04299570366787253  1.0000
  C   C26       1.0  0.8266211862742785  0.7264023679839706  0.04617095419699723  1.0000
  H   H12       1.0  0.977497023362263  0.5919302760118743  0.2645922206141331  1.0000
  H   H13       1.0  0.9774968537208014  0.5919300906955225  0.8492419071192682  1.0000
  H   H14       1.0  0.053571923763497065  0.24627961443243376  0.08384196367436747  1.0000
  H   H15       1.0  0.028159475301525506  0.36171562132750973  0.6283420585478923  1.0000
  H   H16       1.0  0.8115961387867364  0.6687969560521367  0.9624792137796652  1.0000
  H   H17       1.0  0.8115965016886965  0.6687982644878867  0.1387139069101444  1.0000
  H   H18       1.0  0.7874053489708628  0.8164080481735216  0.03911592199398828  1.0000
  Zn  Zn1       1.0  0.9245797258822327  0.4115659757648267  0.5707608329647447  1.0000
  Zn  Zn2       1.0  0.11025976220628066  0.4096976436763952  0.5713177063373875  1.0000
  C   C27       1.0  0.01742189311145469  0.40545998911384507  0.8081597892116354  1.0000
  C   C28       1.0  0.017419622597297346  0.4158052480468956  0.33391888359783706  1.0000
  C   C29       1.0  0.017419442913203725  0.6477521731489015  0.565866045840502  1.0000
  C   C30       1.0  0.01742200943590276  0.17351150482092503  0.5762126959956058  1.0000
  O   O2        1.0  0.08788281803925052  0.4168267213276575  0.38250080816146026  1.0000
  O   O3        1.0  0.0878855488958803  0.4030195155834433  0.7600001449246538  1.0000
  O   O4        1.0  0.0878826204331209  0.598673527952569  0.5643462300352424  1.0000
  O   O5        1.0  0.0878856831419983  0.22117271888346798  0.5781546255169363  1.0000
  O   O6        1.0  0.9469537415830318  0.6000909011967381  0.5639239135883334  1.0000
  O   O7        1.0  0.9469566700419532  0.40443844865750966  0.759577759254247  1.0000
  O   O8        1.0  0.9469539392417812  0.4182456091589737  0.3820768615836987  1.0000
  O   O9        1.0  0.9469568043410569  0.2225915974288315  0.5777307762762476  1.0000
