data_image0
_chemical_formula_structural       NC5NC3BrH3C6BrH5C6ClH5Zn2C4O8
_chemical_formula_sum              "N2 C24 Br2 H13 Cl1 Zn2 O8"
_cell_length_a       13.839083392302014
_cell_length_b       9.276564384272257
_cell_length_c       10.302974078461048
_cell_angle_alpha    85.51203645114332
_cell_angle_beta     90.00087565585007
_cell_angle_gamma    90.61189963838827

_space_group_name_H-M_alt    "P 1"
_space_group_IT_number       1

loop_
  _space_group_symop_operation_xyz
  'x, y, z'

loop_
  _atom_site_type_symbol
  _atom_site_label
  _atom_site_symmetry_multiplicity
  _atom_site_fract_x
  _atom_site_fract_y
  _atom_site_fract_z
  _atom_site_occupancy
  N   N1        1.0  0.9207241939879961  0.5788539894709399  0.5667423929445334  1.0000
  C   C1        1.0  0.8482852232821632  0.5152067376252889  0.5690103987952344  1.0000
  C   C2        1.0  0.7580328608034931  0.436007550342723  0.5718324401935455  1.0000
  C   C3        1.0  0.6709988572574601  0.5122143644549866  0.569117198549828  1.0000
  C   C4        1.0  0.5824397894469462  0.4374804048533738  0.5717799084986155  1.0000
  C   C5        1.0  0.49321948759094436  0.5160388252794947  0.5689807344706943  1.0000
  N   N2        1.0  0.4214979701776521  0.5791936366064472  0.566730240520195  1.0000
  C   C6        1.0  0.5808467563218802  0.2862281004129752  0.5771690031286287  1.0000
  C   C7        1.0  0.6674348824959163  0.20990000777113105  0.5798884836571683  1.0000
  C   C8        1.0  0.7561850815215037  0.28391977906998256  0.5772512382897859  1.0000
  Br  Br1       1.0  0.872833096228098  0.17381955641167934  0.5811741709903249  1.0000
  H   H1        1.0  0.6721782326426086  0.6294220993648472  0.5649409267018983  1.0000
  H   H2        1.0  0.5127487144663868  0.2273702258427626  0.5792658583867558  1.0000
  H   H3        1.0  0.6654940188820765  0.09294150159831016  0.5840555356524946  1.0000
  C   C9        1.0  0.1682044256740265  0.15554086332595118  0.5670683878566396  1.0000
  C   C10       1.0  0.15582143189748798  0.23903176311123134  0.4484109643380274  1.0000
  C   C11       1.0  0.1524312101969616  0.17404060404053845  0.33086164536178053  1.0000
  C   C12       1.0  0.16140251323725896  0.024639527862902133  0.3297377297820301  1.0000
  C   C13       1.0  0.17208321985630382  0.9394541446767047  0.4466008893981126  1.0000
  C   C14       1.0  0.17402691039947538  0.0024956146797938754  0.5664154618076531  1.0000
  Br  Br2       1.0  0.1574750385977639  0.936279102630199  0.168439508307886  1.0000
  H   H4        1.0  0.13986914249886898  0.41807403050349096  0.7781360701848927  1.0000
  H   H5        1.0  0.15105288106500137  0.3556849218855378  0.44618848751919743  1.0000
  H   H6        1.0  0.14374797829440356  0.24025495500338634  0.24043013529339238  1.0000
  H   H7        1.0  0.17655409390697097  0.8232171946098087  0.44380174478423307  1.0000
  H   H8        1.0  0.22733168339212217  0.7045990881381315  0.768615117803354  1.0000
  C   C15       1.0  0.17111567459784682  0.5790182730160032  0.18549945332901308  1.0000
  C   C16       1.0  0.15327774809721695  0.42922618574759824  0.19484898905147818  1.0000
  C   C17       1.0  0.14442710501287803  0.3549034319691189  0.08253118247952762  1.0000
  C   C18       1.0  0.15327779187385904  0.42922626722030793  0.9597410900165442  1.0000
  C   C19       1.0  0.17111567162136465  0.5790181985746694  0.9479844724598752  1.0000
  C   C20       1.0  0.17994770048692743  0.653184099920773  0.06151688293197299  1.0000
  Cl  Cl1       1.0  0.12214330027728582  0.16777752955292002  0.09571451648022311  1.0000
  H   H9        1.0  0.1778354707964744  0.6354423672590455  0.5092805836701702  1.0000
  H   H10       1.0  0.14618320131916684  0.3696503746996689  0.2890927474542395  1.0000
  H   H11       1.0  0.14618326870062037  0.3696503541678831  0.8738917813945609  1.0000
  H   H12       1.0  0.19370480145599234  0.7687082535528178  0.053377915330820036  1.0000
  H   H13       1.0  0.17783528683913774  0.6354423543727652  0.6162529532030829  1.0000
  Zn  Zn1       1.0  0.06523666485883362  0.5789481378492047  0.5667463919629767  1.0000
  Zn  Zn2       1.0  0.27698541018951595  0.5790876681944976  0.566736904984559  1.0000
  C   C21       1.0  0.17107400874856182  0.5732732385016468  0.8038628788972104  1.0000
  C   C22       1.0  0.17115039109832608  0.5847643886356884  0.3296205439682929  1.0000
  C   C23       1.0  0.17292135979213508  0.842403157524897  0.5613654578876053  1.0000
  C   C24       1.0  0.16930295588873093  0.31563273696028715  0.5721180355324067  1.0000
  O   O1        1.0  0.25151954433725554  0.5867394971668958  0.37798530314017187  1.0000
  O   O2        1.0  0.2514172462042128  0.5714029423621834  0.7554905464447454  1.0000
  O   O3        1.0  0.2529079222766628  0.7887287548719484  0.559672162162655  1.0000
  O   O4        1.0  0.2500287960802241  0.36941369492565146  0.5738035900751586  1.0000
  O   O5        1.0  0.09219320670868147  0.7886221110720057  0.5596797068687847  1.0000
  O   O6        1.0  0.09070254254280964  0.5712980311683467  0.7554980205927739  1.0000
  O   O7        1.0  0.09080484039468151  0.5866345357196674  0.37799121644384504  1.0000
  O   O8        1.0  0.08931409206278751  0.36930872316385743  0.5738096007223432  1.0000
