data_image0
_chemical_formula_structural       NC9NC3OH6C6FH3C6ClH3Zn2C4O8
_chemical_formula_sum              "N2 C28 O9 H12 F1 Cl1 Zn2"
_cell_length_a       15.78231758774541
_cell_length_b       9.275642734913905
_cell_length_c       10.302974078461048
_cell_angle_alpha    85.47815817126667
_cell_angle_beta     90.08385130592438
_cell_angle_gamma    90.23470761467162

_space_group_name_H-M_alt    "P 1"
_space_group_IT_number       1

loop_
  _space_group_symop_operation_xyz
  'x, y, z'

loop_
  _atom_site_type_symbol
  _atom_site_label
  _atom_site_symmetry_multiplicity
  _atom_site_fract_x
  _atom_site_fract_y
  _atom_site_fract_z
  _atom_site_occupancy
  N   N1        1.0  0.8075676625847783  0.5694548965264024  0.568374196661042  1.0000
  C   C1        1.0  0.7584728044447148  0.4783223802502712  0.5925630052208879  1.0000
  C   C2        1.0  0.6975198797474018  0.3652047757912747  0.6225875465125179  1.0000
  C   C3        1.0  0.716304917514191  0.22311083598647105  0.6602238255082093  1.0000
  C   C4        1.0  0.6391490428470622  0.15424655035535784  0.6785383659143851  1.0000
  C   C5        1.0  0.5780178773105278  0.2594123283156866  0.6507244785243627  1.0000
  C   C6        1.0  0.4848068159038459  0.23996878327977592  0.6559585768635521  1.0000
  C   C7        1.0  0.4317979889519406  0.35918737424716696  0.6242630724050806  1.0000
  C   C8        1.0  0.34349304051052926  0.34324413346517446  0.6285620658719724  1.0000
  C   C9        1.0  0.28980913844919476  0.46593145118149143  0.5959361205871805  1.0000
  N   N2        1.0  0.24666007819804903  0.5645562258088919  0.5697077827851815  1.0000
  C   C10       1.0  0.3075145359596968  0.2079048615679032  0.6646057693233629  1.0000
  C   C11       1.0  0.35959395267349414  0.08893275168608783  0.6962400998615805  1.0000
  C   C12       1.0  0.4477105339348156  0.10443800607002768  0.6920579351698755  1.0000
  O   O1        1.0  0.6152460264295615  0.38404744537611785  0.6176639799417689  1.0000
  H   H1        1.0  0.7784693829113658  0.17519166193700866  0.6728652962238721  1.0000
  H   H2        1.0  0.6297176008498137  0.0410156008123972  0.7085449488256967  1.0000
  H   H3        1.0  0.4590538826559443  0.4645053254066148  0.5962099600253519  1.0000
  H   H4        1.0  0.2393148523236651  0.19440176513937613  0.6682446715129402  1.0000
  H   H5        1.0  0.33161218991430585  0.9843348086982774  0.7241018500605434  1.0000
  H   H6        1.0  0.4862149912990229  0.010203716628547353  0.7171227999040173  1.0000
  C   C13       1.0  0.024497860225024762  0.14349078869406506  0.5695912671798511  1.0000
  C   C14       1.0  0.008098175007749335  0.22698660732348944  0.4522577634472021  1.0000
  C   C15       1.0  0.9996906725242661  0.1618033850988399  0.33534902050509263  1.0000
  C   C16       1.0  0.007619482496857176  0.012424166698936869  0.3337078716150539  1.0000
  C   C17       1.0  0.02248783734832793  0.9273559439121217  0.4492206053114596  1.0000
  C   C18       1.0  0.029737915284843583  0.9905091612970951  0.5685019437229297  1.0000
  F   F1        1.0  0.9848187509207486  0.24406876825272383  0.22300645606595573  1.0000
  H   H7        1.0  0.11205032583380897  0.22165982743706295  0.8598440536696019  1.0000
  H   H8        1.0  0.0014332127331191358  0.962031842856345  0.24289173617779736  1.0000
  H   H9        1.0  0.08529953152616598  0.6924650478189264  0.7655591645987894  1.0000
  C   C19       1.0  0.027117885708846528  0.5669999972908382  0.1878041208123229  1.0000
  C   C20       1.0  0.011453269751078519  0.417372483033328  0.1971856686808453  1.0000
  C   C21       1.0  0.003680957981186946  0.3431313853753373  0.08488374579873437  1.0000
  C   C22       1.0  0.011453308148612328  0.41737256406009154  0.9620777697200782  1.0000
  C   C23       1.0  0.027117883087142806  0.5669999228696967  0.9502891399749189  1.0000
  C   C24       1.0  0.03487384844339814  0.6410843397508054  0.0638057004515058  1.0000
  Cl  Cl1       1.0  0.9841121340305234  0.15621107371377657  0.09810707058326673  1.0000
  H   H10       1.0  0.005223097708280331  0.3578621263774646  0.2914421590969609  1.0000
  H   H11       1.0  0.005223156786942739  0.3578621051378205  0.8762411932293351  1.0000
  H   H12       1.0  0.04695483242983786  0.7564815701906753  0.0556420440059946  1.0000
  Zn  Zn1       1.0  0.9342802213349862  0.5680373936339115  0.5687665367461952  1.0000
  Zn  Zn2       1.0  0.11994741813530613  0.565961957862412  0.569326070637765  1.0000
  C   C25       1.0  0.027080438085701694  0.5612545540904215  0.806170500880005  1.0000
  C   C26       1.0  0.02714924012212559  0.5727465944488053  0.33192223769801465  1.0000
  C   C27       1.0  0.02874305666178166  0.8304047115342309  0.5635343935105213  1.0000
  C   C28       1.0  0.025486547471333488  0.3035947049785566  0.5745584163206265  1.0000
  O   O2        1.0  0.09761945759828888  0.5738812960183075  0.38050194254757597  1.0000
  O   O3        1.0  0.09752732020367459  0.5585435567991545  0.7580150969845174  1.0000
  O   O4        1.0  0.0988689558996027  0.7758857234207308  0.5620847188019154  1.0000
  O   O5        1.0  0.09627775861055049  0.35653914042184426  0.5764322231835897  1.0000
  O   O6        1.0  0.9579498175006498  0.777460211784294  0.5616603840025987  1.0000
  O   O7        1.0  0.9566081925203413  0.5601197778989708  0.7575906907343  1.0000
  O   O8        1.0  0.9567003296604235  0.5754574668602863  0.3800759754790701  1.0000
  O   O9        1.0  0.9553586306054034  0.3581153009485243  0.5760063534639006  1.0000
