data_image0
_chemical_formula_structural       NC9NC3SH6C8H4C7F3H4Zn2C4O8
_chemical_formula_sum              "N2 C31 S1 H14 F3 Zn2 O8"
_cell_length_a       16.77567553997237
_cell_length_b       9.27514070457351
_cell_length_c       9.272721663655243
_cell_angle_alpha    86.0082858104151
_cell_angle_beta     90.90861439337802
_cell_angle_gamma    91.48491386358626

_space_group_name_H-M_alt    "P 1"
_space_group_IT_number       1

loop_
  _space_group_symop_operation_xyz
  'x, y, z'

loop_
  _atom_site_type_symbol
  _atom_site_label
  _atom_site_symmetry_multiplicity
  _atom_site_fract_x
  _atom_site_fract_y
  _atom_site_fract_z
  _atom_site_occupancy
  N   N1        1.0  0.7519288078228272  0.5899881576874642  0.42110889690330877  1.0000
  C   C1        1.0  0.6977272083435846  0.6450324907818439  0.4674440624351706  1.0000
  C   C2        1.0  0.6304621854255911  0.7133388660949807  0.5249424592161733  1.0000
  C   C3        1.0  0.63369050109107  0.811769272255098  0.6307461912176511  1.0000
  C   C4        1.0  0.5585069226687467  0.8602477901871529  0.6658627548195823  1.0000
  C   C5        1.0  0.49576370735633796  0.7997792475363462  0.5872955209108659  1.0000
  C   C6        1.0  0.4095000830534194  0.8287938116064796  0.599419897670465  1.0000
  C   C7        1.0  0.3518495066015474  0.7400383408091542  0.53446783339853  1.0000
  C   C8        1.0  0.2704168408704844  0.766813518206974  0.5454131327227167  1.0000
  C   C9        1.0  0.2120739584077687  0.6750856338622528  0.47890397465770573  1.0000
  N   N2        1.0  0.165183428845205  0.6013495614407758  0.42544043725713365  1.0000
  C   C10       1.0  0.24580602660738196  0.88269133394858  0.6211324890924539  1.0000
  C   C11       1.0  0.3023633868737171  0.9716202219397272  0.6855724402961221  1.0000
  C   C12       1.0  0.38364236296698523  0.9452503175092044  0.6749553125119263  1.0000
  S   S1        1.0  0.53513170465457  0.6857647990841338  0.4747265931353897  1.0000
  H   H1        1.0  0.6885526043842807  0.8474432156560238  0.6816603418748802  1.0000
  H   H2        1.0  0.5510859879119056  0.9361209764608301  0.7476562530331761  1.0000
  H   H3        1.0  0.36983457238721207  0.6494207237688308  0.47599345766179485  1.0000
  H   H4        1.0  0.18299129614429338  0.9043524249857525  0.6301696822089101  1.0000
  H   H5        1.0  0.28319199139239  0.06155669796041473  0.7436925197586769  1.0000
  H   H6        1.0  0.4257455563057748  0.01732045779731495  0.7248429589865326  1.0000
  C   C13       1.0  0.9561325574017366  0.1721558862521442  0.42224085837013825  1.0000
  C   C14       1.0  0.9668595726350495  0.25516031451756915  0.29081756956163973  1.0000
  C   C15       1.0  0.984566480045114  0.18962892853307656  0.16463556648118316  1.0000
  C   C16       1.0  0.9919729509313089  0.03991789826461489  0.16745446262657993  1.0000
  C   C17       1.0  0.980212826519171  0.9552910701393258  0.2965036790781459  1.0000
  C   C18       1.0  0.9609872890621302  0.01917104313919937  0.4243210702425007  1.0000
  C   C19       1.0  0.01074756398976651  0.9726425287192745  0.03725312267216263  1.0000
  C   C20       1.0  0.026467298391235513  0.9163009737494328  0.9282466928118303  1.0000
  H   H7        1.0  0.9709514141761586  0.2510413274612162  0.776704808473174  1.0000
  H   H8        1.0  0.9932628791324478  0.25605391757722473  0.0650421402709147  1.0000
  H   H9        1.0  0.9679050263415498  0.7221641084077847  0.6631123976887842  1.0000
  H   H10       1.0  0.040265848813399785  0.8668432240038629  0.8325619382735692  1.0000
  C   C21       1.0  0.9564366974898255  0.5932662998094584  0.9998098620360758  1.0000
  C   C22       1.0  0.9896984850499635  0.4762355679201388  0.08259821803983969  1.0000
  C   C23       1.0  0.029998511845841236  0.36797550734459894  0.0168535554373066  1.0000
  C   C24       1.0  0.03458249018296189  0.3747416720146193  0.8657676951639339  1.0000
  C   C25       1.0  0.0008309037834453008  0.4887567227277711  0.7819987094170542  1.0000
  C   C26       1.0  0.9606831872371595  0.5980606510160247  0.8467520085699785  1.0000
  C   C27       1.0  0.06339429012393172  0.24141197415302454  0.10724548147240776  1.0000
  F   F1        1.0  0.0904888599013578  0.2840660788272211  0.2398628486464469  1.0000
  F   F2        1.0  0.1266150528481087  0.18350594323632885  0.03864530273205858  1.0000
  F   F3        1.0  0.004256366576733895  0.1359926343470994  0.12941261907026425  1.0000
  H   H11       1.0  0.9078591856382406  0.9353056012984738  0.07634287556348474  1.0000
  H   H12       1.0  0.06357028942510468  0.29083205716819194  0.8119607009014819  1.0000
  H   H13       1.0  0.004250532344548753  0.4893119222724151  0.6653810402931835  1.0000
  H   H14       1.0  0.8189790334437776  0.8373761273016597  0.7245586528393062  1.0000
  Zn  Zn1       1.0  0.8711851872607452  0.5932630100652148  0.4223672128183711  1.0000
  Zn  Zn2       1.0  0.04592703638634732  0.598063010991283  0.4241939349649493  1.0000
  C   C28       1.0  0.9598457840263115  0.5914089387600112  0.6866476963609011  1.0000
  C   C29       1.0  0.9572683589357868  0.5999189552132453  0.15991361737757703  1.0000
  C   C30       1.0  0.9600367405230799  0.8590345053507541  0.4181812959696205  1.0000
  C   C31       1.0  0.9570773332660159  0.33229165469176203  0.4283800897725365  1.0000
  O   O1        1.0  0.02386105712037989  0.6039669306260054  0.21433911631854685  1.0000
  O   O2        1.0  0.025878097759618243  0.5910029626464037  0.633608219472031  1.0000
  O   O3        1.0  0.026031411124519673  0.8071139761880219  0.4168196960493247  1.0000
  O   O4        1.0  0.023707683644929475  0.3878559251512692  0.43112753101866774  1.0000
  O   O5        1.0  0.8934044803713169  0.8034700942687522  0.41543361613370067  1.0000
  O   O6        1.0  0.8932511765485714  0.5873608130213953  0.632222066921776  1.0000
  O   O7        1.0  0.891234126981363  0.6003247209308846  0.21295122987002427  1.0000
  O   O8        1.0  0.8910807539856151  0.38421370575278835  0.429739752661779  1.0000
