data_image0
_chemical_formula_structural       NC5NC3F3CH3C6BrH5C6ClH5Zn2C4O8
_chemical_formula_sum              "N2 C25 F3 H13 Br1 Cl1 Zn2 O8"
_cell_length_a       13.85151926108384
_cell_length_b       9.276564384272257
_cell_length_c       10.302974078461048
_cell_angle_alpha    85.51203645114332
_cell_angle_beta     89.99987480856441
_cell_angle_gamma    90.58593481197379

_space_group_name_H-M_alt    "P 1"
_space_group_IT_number       1

loop_
  _space_group_symop_operation_xyz
  'x, y, z'

loop_
  _atom_site_type_symbol
  _atom_site_label
  _atom_site_symmetry_multiplicity
  _atom_site_fract_x
  _atom_site_fract_y
  _atom_site_fract_z
  _atom_site_occupancy
  N   N1        1.0  0.9198931982282502  0.5782295492486246  0.5667647841416694  1.0000
  C   C1        1.0  0.8475014092164828  0.5691499561614743  0.6230282845225985  1.0000
  C   C2        1.0  0.7574403261909013  0.557853697228204  0.6930281278512771  1.0000
  C   C3        1.0  0.6699775298556432  0.5670747869392216  0.625004584931689  1.0000
  C   C4        1.0  0.5823883365970294  0.5578536840830575  0.6930281097968649  1.0000
  C   C5        1.0  0.49248215720766536  0.5691499723105495  0.6230283692261971  1.0000
  N   N2        1.0  0.42021501235535397  0.5782295113612259  0.5667648791399311  1.0000
  C   C6        1.0  0.5822458422300928  0.5384135568626773  0.8292344811177103  1.0000
  C   C7        1.0  0.6696958657871521  0.5260027801490804  0.8983970876831718  1.0000
  C   C8        1.0  0.6695889855493732  0.51042618827347  0.04522351469345221  1.0000
  F   F1        1.0  0.7500109543515285  0.4356142401028698  0.09175230087093056  1.0000
  F   F2        1.0  0.588142139481108  0.4356142095045131  0.091752390319506  1.0000
  F   F3        1.0  0.6705190143362545  0.6462353393019349  0.09169811065701294  1.0000
  C   C9        1.0  0.7573161684186485  0.5384134616127942  0.8292344988568477  1.0000
  H   H1        1.0  0.6700818668371424  0.5822862172549714  0.5195486595485801  1.0000
  H   H2        1.0  0.514087050612343  0.5332357275314192  0.8811591131515114  1.0000
  H   H3        1.0  0.8254038035775871  0.5332356466354089  0.8811590762520847  1.0000
  C   C10       1.0  0.16715006766910964  0.15474858064668462  0.5670967975538772  1.0000
  C   C11       1.0  0.154778250111669  0.23824787864658512  0.44843907289182106  1.0000
  C   C12       1.0  0.15139108824152037  0.17325901884293216  0.3308896714683838  1.0000
  C   C13       1.0  0.16035429426988435  0.02385185827813464  0.3297659740627801  1.0000
  C   C14       1.0  0.17102536106196542  0.9386592313778488  0.44662939342419006  1.0000
  C   C15       1.0  0.17296729733538863  0.0016993831593004073  0.5664440131025634  1.0000
  Br  Br1       1.0  0.15643036435615332  0.935494096680376  0.1684676570759298  1.0000
  H   H4        1.0  0.13884035838494294  0.4173009649694247  0.7781637907931331  1.0000
  H   H5        1.0  0.15001400311473703  0.3549042714783445  0.44621648010605724  1.0000
  H   H6        1.0  0.14271569335349832  0.2394792588215082  0.24045795023148453  1.0000
  H   H7        1.0  0.17549219994400922  0.8224192491395335  0.44383035753800826  1.0000
  H   H8        1.0  0.22622396032873332  0.7037667050268406  0.7686449654231449  1.0000
  C   C16       1.0  0.17005868905742363  0.5782240159116734  0.18552793382524646  1.0000
  C   C17       1.0  0.15223686210254428  0.4284440264233229  0.19487703574513393  1.0000
  C   C18       1.0  0.1433942071290013  0.35412727519975773  0.08255901393338072  1.0000
  C   C19       1.0  0.15223690583967578  0.42844410786634296  0.9597691367112641  1.0000
  C   C20       1.0  0.17005868608362784  0.5782239414723582  0.948012952956036  1.0000
  C   C21       1.0  0.17888274363857945  0.6523838528878136  0.061545578215255414  1.0000
  Cl  Cl1       1.0  0.12113051454791446  0.16701648578273298  0.09574180601167592  1.0000
  H   H9        1.0  0.17677242033217555  0.6346435527519019  0.509309227585897  1.0000
  H   H10       1.0  0.14514871847793365  0.36887302693611485  0.2891206216147997  1.0000
  H   H11       1.0  0.14514878579857277  0.36887300635863074  0.8739196555567591  1.0000
  H   H12       1.0  0.19262742819386247  0.7678986763781683  0.05340694517461686  1.0000
  H   H13       1.0  0.17677223654086816  0.6346435399903828  0.6162815971143356  1.0000
  Zn  Zn1       1.0  0.06427523997459096  0.5782256884727612  0.5667722975754448  1.0000
  Zn  Zn2       1.0  0.27583287236325416  0.5782216096520596  0.566767960139019  1.0000
  C   C22       1.0  0.17001706081347598  0.5724790096553256  0.8038913583801672  1.0000
  C   C23       1.0  0.17009337422467108  0.5839701079864366  0.3296490253088007  1.0000
  C   C24       1.0  0.17186274453811268  0.8416076757949176  0.561393982296504  1.0000
  C   C25       1.0  0.1682476064099756  0.3148397092517752  0.5721464719449265  1.0000
  O   O1        1.0  0.25038999062141465  0.5858907097150168  0.3780157389873231  1.0000
  O   O2        1.0  0.2502877848171223  0.5705542242894617  0.7555209798040972  1.0000
  O   O3        1.0  0.251777115486135  0.7878790258144998  0.5597026317739286  1.0000
  O   O4        1.0  0.2489005878329705  0.3685659185074559  0.5738339896686324  1.0000
  O   O5        1.0  0.09120745231064875  0.7878813796203261  0.5597062680404814  1.0000
  O   O6        1.0  0.08971813353746794  0.5705583106933199  0.7555245455128385  1.0000
  O   O7        1.0  0.08982033906084275  0.585894745865674  0.3780177438517023  1.0000
  O   O8        1.0  0.08833093619760349  0.36856994434359747  0.5738360918765213  1.0000
