data_image0
_chemical_formula_structural       NC6NSH2C10H8C4OC8H9Zn2C4O8
_chemical_formula_sum              "N2 C32 S1 H19 O9 Zn2"
_cell_length_a       14.474562073675546
_cell_length_b       12.925547966005277
_cell_length_c       15.44455643226506
_cell_angle_alpha    84.97305912114216
_cell_angle_beta     90.01936935476012
_cell_angle_gamma    88.12692530326781

_space_group_name_H-M_alt    "P 1"
_space_group_IT_number       1

loop_
  _space_group_symop_operation_xyz
  'x, y, z'

loop_
  _atom_site_type_symbol
  _atom_site_label
  _atom_site_symmetry_multiplicity
  _atom_site_fract_x
  _atom_site_fract_y
  _atom_site_fract_z
  _atom_site_occupancy
  N   N1        1.0  0.836523695986337  0.13332968477759688  0.03424539686198469  1.0000
  C   C1        1.0  0.7590114614391805  0.1153713025341443  0.029150698103513013  1.0000
  C   C2        1.0  0.6628162512148583  0.0930865987289915  0.02282853829271403  1.0000
  C   C3        1.0  0.6281018448195484  0.001747152391891255  0.9969155031595249  1.0000
  C   C4        1.0  0.5313857550077021  0.0017472521518328789  0.9969152953297997  1.0000
  C   C5        1.0  0.491358072471193  0.09308670647865047  0.02282822231610204  1.0000
  C   C6        1.0  0.39386652264566685  0.11537147406229664  0.02915053780989973  1.0000
  N   N2        1.0  0.31530965092034857  0.1333297685222654  0.03424532818257264  1.0000
  S   S1        1.0  0.5747301931496088  0.17412270749617753  0.045818416099997705  1.0000
  H   H1        1.0  0.6710672272403764  0.9371529722363148  0.9785902298071822  1.0000
  H   H2        1.0  0.4921778701795135  0.9371532010044917  0.9785897888844919  1.0000
  C   C7        1.0  0.08479689347614228  0.8289969558472349  0.03707355030260241  1.0000
  C   C8        1.0  0.17147906546206504  0.7861842916716816  0.06465751985950141  1.0000
  C   C9        1.0  0.1887584758531733  0.6788203363805659  0.07015608952564745  1.0000
  C   C10       1.0  0.11961460051636116  0.6122488461817022  0.048153148197822127  1.0000
  C   C11       1.0  0.1364836728407377  0.5043114229909119  0.05352130676621415  1.0000
  C   C12       1.0  0.06704553446267925  0.43765446436250105  0.03142477654753873  1.0000
  C   C13       1.0  0.980297265044469  0.48046627162556066  0.0038196606380809244  1.0000
  C   C14       1.0  0.9630068389958386  0.5878241410178247  0.9983174124433936  1.0000
  C   C15       1.0  0.0321526469033606  0.6543885953999329  0.020320962954614497  1.0000
  C   C16       1.0  0.015295478952410457  0.762322954161007  0.014956624350172866  1.0000
  H   H3        1.0  0.12507685093814835  0.0862993139057131  0.04989168585278336  1.0000
  H   H4        1.0  0.22619775004229778  0.835697221970476  0.08207037894680702  1.0000
  H   H5        1.0  0.2562164850259725  0.6478848369937699  0.09162236009197189  1.0000
  H   H6        1.0  0.20368709010107966  0.47242788695004967  0.07490694158251601  1.0000
  H   H7        1.0  0.1844820910734663  0.20424587616775564  0.06879501861893303  1.0000
  H   H8        1.0  0.9255948794941152  0.4309133184627844  0.9864122908771988  1.0000
  H   H9        1.0  0.8955485484133209  0.6187574411573403  0.9768507387107703  1.0000
  H   H10       1.0  0.948094526887445  0.7942475157223899  0.9935716858367531  1.0000
  C   C17       1.0  0.07583551463896397  0.1330972562323511  0.7799413087834146  1.0000
  C   C18       1.0  0.1214773062674277  0.08524392441010797  0.7129553480735885  1.0000
  C   C19       1.0  0.07993920090075665  0.08430403699610968  0.6313109982151728  1.0000
  C   C20       1.0  0.9923044488521424  0.13209770358587233  0.6150162180632124  1.0000
  O   O1        1.0  0.9479491917293481  0.13165539376748447  0.5342872801583725  1.0000
  C   C21       1.0  0.9923778583663145  0.13238912972769246  0.45354123993761475  1.0000
  C   C22       1.0  0.9500419078189852  0.08497740926460384  0.38659037725734025  1.0000
  C   C23       1.0  0.9915361339623036  0.08497550536783227  0.30486407508523716  1.0000
  C   C24       1.0  0.0760069367246605  0.13355416516542457  0.2885570190362512  1.0000
  C   C25       1.0  0.11778252714100865  0.18260534960451813  0.35555169023372035  1.0000
  C   C26       1.0  0.07614186391887179  0.18245170772292796  0.4372139829863112  1.0000
  C   C27       1.0  0.946179273805795  0.17833724334842113  0.6819827916413965  1.0000
  C   C28       1.0  0.9875551439757625  0.17942763074067805  0.7636851866561878  1.0000
  H   H11       1.0  0.1891051860083719  0.04800743209127934  0.7236635563756229  1.0000
  H   H12       1.0  0.11562507134971  0.04500570189164165  0.5813965439210413  1.0000
  H   H13       1.0  0.8848871769756029  0.04738034108641553  0.3981233828585896  1.0000
  H   H14       1.0  0.9573598911621732  0.04702633835912273  0.2545202313759811  1.0000
  H   H15       1.0  0.10711877376871468  0.08435715178309522  0.07652494994606207  1.0000
  H   H16       1.0  0.18240261903919713  0.22158575606356984  0.344782020203654  1.0000
  H   H17       1.0  0.10862307342867261  0.22265319458166077  0.48711197918912263  1.0000
  H   H18       1.0  0.8781201087539212  0.2141719175982377  0.6704811708644696  1.0000
  H   H19       1.0  0.9503749481823762  0.21642552945405394  0.8140719017144018  1.0000
  Zn  Zn1       1.0  0.9746910670281582  0.13332692985179406  0.034250407813508084  1.0000
  Zn  Zn2       1.0  0.17714252681979656  0.13332401815342343  0.034247503514246436  1.0000
  C   C29       1.0  0.07609286035955742  0.12933921978708862  0.1924560567012239  1.0000
  C   C30       1.0  0.07574290614424115  0.1373130358826542  0.8760419274574507  1.0000
  C   C31       1.0  0.07039499871243415  0.3226021603560416  0.02904154273212367  1.0000
  C   C32       1.0  0.08144073503812366  0.944048850233256  0.039456499153535995  1.0000
  O   O2        1.0  0.1525412316554453  0.13872226380361183  0.9082931127687449  1.0000
  O   O3        1.0  0.15295053113988222  0.12792699991100662  0.1602024250584893  1.0000
  O   O4        1.0  0.14834840040861946  0.2839892693877777  0.028244038857708098  1.0000
  O   O5        1.0  0.15714329306564195  0.9826600016831059  0.040251433969463415  1.0000
  O   O6        1.0  0.9946902316955315  0.28399094632422917  0.028246477354716415  1.0000
  O   O7        1.0  0.9992923260932534  0.12792992193002095  0.16020480582493837  1.0000
  O   O8        1.0  0.9988830273726624  0.13872514877293235  0.9082944526831376  1.0000
  O   O9        1.0  0.003485089017143618  0.9826628792982789  0.0402528388803446  1.0000
