data_image0
_chemical_formula_structural       NC9NC3OH6C8H9C8H9Zn2C4O8
_chemical_formula_sum              "N2 C32 O9 H24 Zn2"
_cell_length_a       15.78231758774541
_cell_length_b       9.275653711864159
_cell_length_c       9.275657083861812
_cell_angle_alpha    86.03202775307278
_cell_angle_beta     89.58874472212383
_cell_angle_gamma    89.08352321082864

_space_group_name_H-M_alt    "P 1"
_space_group_IT_number       1

loop_
  _space_group_symop_operation_xyz
  'x, y, z'

loop_
  _atom_site_type_symbol
  _atom_site_label
  _atom_site_symmetry_multiplicity
  _atom_site_fract_x
  _atom_site_fract_y
  _atom_site_fract_z
  _atom_site_occupancy
  N   N1        1.0  0.7971591973786263  0.5608726063629594  0.4175880804702935  1.0000
  C   C1        1.0  0.7490043087340981  0.46989866981718054  0.44402732358048813  1.0000
  C   C2        1.0  0.6892181126667852  0.3569779033688411  0.47684523982290994  1.0000
  C   C3        1.0  0.709469201590498  0.2151307662204385  0.5179816865020141  1.0000
  C   C4        1.0  0.6330234083754493  0.14638652042497924  0.5380007705315704  1.0000
  C   C5        1.0  0.5708069622367041  0.2513698740541124  0.5076009129819734  1.0000
  C   C6        1.0  0.4777960303133799  0.23196058529938093  0.5133232423965153  1.0000
  C   C7        1.0  0.42355784109270456  0.3509714244124255  0.47867800840336816  1.0000
  C   C8        1.0  0.33541695327255105  0.3350563142238412  0.4833781296984196  1.0000
  C   C9        1.0  0.2804679669463514  0.4575297879171114  0.44771572112614083  1.0000
  N   N2        1.0  0.2363019494927195  0.5559826521200504  0.4190463165415337  1.0000
  C   C10       1.0  0.30083368977994773  0.19995324569275283  0.5227773049530573  1.0000
  C   C11       1.0  0.35413990229095826  0.08118848325228821  0.5573557472684514  1.0000
  C   C12       1.0  0.4420969371787932  0.09666637250594445  0.5527833340432449  1.0000
  O   O1        1.0  0.6067494674851315  0.37578823295349656  0.4714649508038413  1.0000
  H   H1        1.0  0.7721283614567507  0.1672945298551447  0.5317979289996886  1.0000
  H   H2        1.0  0.62476013762607  0.033352329180791125  0.5707982249248412  1.0000
  H   H3        1.0  0.44972801673112006  0.45610554026211214  0.4480132230456239  1.0000
  H   H4        1.0  0.2327729690457289  0.18647396218345033  0.5267557073801642  1.0000
  H   H5        1.0  0.3272364326541893  0.9767731212216589  0.5878113624295274  1.0000
  H   H6        1.0  0.4815730562528641  0.0025963643808471003  0.5801810528639597  1.0000
  C   C13       1.0  0.01911972800584127  0.13500499227490123  0.4169798763970524  1.0000
  C   C14       1.0  0.9998924267450473  0.2179649534145207  0.2883490588913666  1.0000
  C   C15       1.0  0.972996372420003  0.15240599133033972  0.16527182608309032  1.0000
  C   C16       1.0  0.9665930551021558  0.0019072238116784022  0.16985671999387295  1.0000
  C   C17       1.0  0.9867490260529712  0.9177351927334025  0.2957124810021965  1.0000
  C   C18       1.0  0.014349494023526031  0.9818391306526139  0.419666930703798  1.0000
  C   C19       1.0  0.953853902718396  0.24270207336377658  0.0278542051941122  1.0000
  C   C20       1.0  0.03359371139939427  0.26317681445813434  0.9353519286921603  1.0000
  H   H7        1.0  0.09501400602018362  0.3997296429771082  0.6170400321948202  1.0000
  H   H8        1.0  0.9467870580639838  0.949401452108034  0.07523416335442024  1.0000
  H   H9        1.0  0.9828350593557273  0.801303139495058  0.29481953561852725  1.0000
  H   H10       1.0  0.02110409373399591  0.6838772175941846  0.6574094697371216  1.0000
  H   H11       1.0  0.9047765285655589  0.1900463280176889  0.9650059798607535  1.0000
  H   H12       1.0  0.928006937452623  0.35028446547771547  0.05331949534975532  1.0000
  H   H13       1.0  0.08266886649681421  0.31913238005840516  0.9950304136403701  1.0000
  H   H14       1.0  0.05917994674695067  0.15683311069860892  0.905773817924731  1.0000
  H   H15       1.0  0.01812864291431437  0.32989148688322417  0.8346866734577745  1.0000
  C   C21       1.0  0.01890529342640712  0.5562244255831172  0.9950038086720226  1.0000
  C   C22       1.0  0.0621803444370137  0.665650361318634  0.06043871173369197  1.0000
  C   C23       1.0  0.09793847132932404  0.7813309237235071  0.9771893853314476  1.0000
  C   C24       1.0  0.0916847060164716  0.7865878375813844  0.826546290309047  1.0000
  C   C25       1.0  0.050236203504506055  0.677787094356828  0.7596669091597286  1.0000
  C   C26       1.0  0.014563932883859378  0.5606197166773671  0.8416430546766174  1.0000
  C   C27       1.0  0.1450989591783648  0.8964252959405089  0.04891494005408536  1.0000
  C   C28       1.0  0.2384058796167252  0.8542443018831294  0.06693806334993169  1.0000
  H   H16       1.0  0.9821653111120563  0.3266225705769561  0.29197467197464766  1.0000
  H   H17       1.0  0.06657662448657953  0.6629283551518663  0.1771698035610152  1.0000
  H   H18       1.0  0.1197552787381528  0.8743974345652774  0.7605345542127941  1.0000
  H   H19       1.0  0.915451235313904  0.39555481885598276  0.5729491400832565  1.0000
  H   H20       1.0  0.13986870770087179  0.0011538501988752564  0.9833913696257218  1.0000
  H   H21       1.0  0.11682341665191659  0.9130692675865693  0.15674966547684543  1.0000
  H   H22       1.0  0.2450159644820752  0.7516029853801856  0.13538080372994532  1.0000
  H   H23       1.0  0.2683003699048039  0.8406418536623036  0.9598201615251187  1.0000
  H   H24       1.0  0.27199474172766  0.9404198898471343  0.11989247133242985  1.0000
  Zn  Zn1       1.0  0.923886285032285  0.5594576628763217  0.4180172014297196  1.0000
  Zn  Zn2       1.0  0.10957483921122163  0.5573858885050731  0.41862894235766585  1.0000
  C   C29       1.0  0.015415011589491538  0.5540447639208991  0.6815918526074735  1.0000
  C   C30       1.0  0.01804812939354172  0.5628005848821809  0.15505444512074362  1.0000
  C   C31       1.0  0.015276270961638068  0.8217397072449674  0.41341458680789217  1.0000
  C   C32       1.0  0.018186816023167063  0.2951039103062411  0.4232317820695497  1.0000
  O   O2        1.0  0.08822833133517616  0.5642150859350064  0.20900103332724224  1.0000
  O   O3        1.0  0.0861681339842017  0.5510567441466669  0.6281091431898016  1.0000
  O   O4        1.0  0.08605514154631821  0.7672238147258198  0.4115541052857091  1.0000
  O   O5        1.0  0.08834126090626966  0.34804802581634253  0.42555596296940756  1.0000
  O   O6        1.0  0.9451197999708771  0.7687955262735771  0.41109018060164293  1.0000
  O   O7        1.0  0.9452327830406279  0.5526301876548203  0.6276451471401763  1.0000
  O   O8        1.0  0.9472929896181895  0.5657884701985377  0.20853530396313902  1.0000
  O   O9        1.0  0.9474059186897127  0.3496214003279101  0.4250903416508969  1.0000
