data_image0
_chemical_formula_structural       NC9NC3SH6C6SCNH4C8NH7Zn2C4O8
_chemical_formula_sum              "N4 C31 S2 H17 Zn2 O8"
_cell_length_a       16.77567553997237
_cell_length_b       10.302215558581764
_cell_length_c       9.274266800404106
_cell_angle_alpha    85.99272178288915
_cell_angle_beta     89.94189520236782
_cell_angle_gamma    90.91242892959859

_space_group_name_H-M_alt    "P 1"
_space_group_IT_number       1

loop_
  _space_group_symop_operation_xyz
  'x, y, z'

loop_
  _atom_site_type_symbol
  _atom_site_label
  _atom_site_symmetry_multiplicity
  _atom_site_fract_x
  _atom_site_fract_y
  _atom_site_fract_z
  _atom_site_occupancy
  N   N1        1.0  0.7578496215205167  0.4290377783901802  0.41802798357200044  1.0000
  C   C1        1.0  0.7029126262466487  0.47866163109196747  0.4642151142479578  1.0000
  C   C2        1.0  0.6347350302547907  0.5402415481719185  0.5215298097634  1.0000
  C   C3        1.0  0.6364346484971922  0.6290134640835446  0.6270594245453813  1.0000
  C   C4        1.0  0.5606563889814135  0.6727095303605786  0.6620479429759123  1.0000
  C   C5        1.0  0.49897863695058403  0.618154111038024  0.5836546658754821  1.0000
  C   C6        1.0  0.4124418969948292  0.6442930194828775  0.5957060504295322  1.0000
  C   C7        1.0  0.3558862196331151  0.5642923697981285  0.5309886842608145  1.0000
  C   C8        1.0  0.27420378309199284  0.5884134738929057  0.5418667247001321  1.0000
  C   C9        1.0  0.2169867122298574  0.5057345362641836  0.47559987151746336  1.0000
  N   N2        1.0  0.1710011711083703  0.43927252053268706  0.4223311123945266  1.0000
  C   C10       1.0  0.24824803921855254  0.6928475024900744  0.6172833830678834  1.0000
  C   C11       1.0  0.3037143110440502  0.7730035048631339  0.6814884393910761  1.0000
  C   C12       1.0  0.3852377643202231  0.7492477450851834  0.670937485877866  1.0000
  S   S1        1.0  0.5400243813433294  0.5153423195356381  0.47139916391109615  1.0000
  H   H1        1.0  0.6906256887658874  0.6612057539484524  0.6778690786142152  1.0000
  H   H2        1.0  0.5520548830473189  0.741138010248932  0.7436300462192338  1.0000
  H   H3        1.0  0.3749161537700806  0.48262501791259327  0.4727507186841124  1.0000
  H   H4        1.0  0.1852295455621738  0.7123617246738971  0.6262660890665863  1.0000
  H   H5        1.0  0.28350510749481633  0.8540571196215082  0.7393738507872154  1.0000
  H   H6        1.0  0.42647846411066614  0.8142046202535674  0.7206357248469901  1.0000
  C   C13       1.0  0.9643501991591684  0.05288081926666654  0.4201390956121125  1.0000
  C   C14       1.0  0.04405097840849882  0.05108968650708268  0.4663279658272372  1.0000
  C   C15       1.0  0.0837115389779375  0.933160660718173  0.4897693593531218  1.0000
  C   C16       1.0  0.04425766183296087  0.8159204216027017  0.4664521758479714  1.0000
  C   C17       1.0  0.9645081394615285  0.8154197538148007  0.42023254112110164  1.0000
  C   C18       1.0  0.9249831636121235  0.934430732806496  0.39738553199672744  1.0000
  S   S2        1.0  0.1855402895838834  0.9323915092613314  0.548138587798928  1.0000
  C   C19       1.0  0.15843923447048686  0.9201338780713441  0.7325761709891955  1.0000
  N   N3        1.0  0.14064783892811739  0.9120977422819749  0.8534905296822357  1.0000
  H   H7        1.0  0.07562531580014742  0.14096588070046173  0.4845436670633236  1.0000
  H   H8        1.0  0.07597367177048997  0.7255189375469641  0.4847530906356854  1.0000
  H   H9        1.0  0.8635145830166876  0.9349625975119555  0.3617830484671114  1.0000
  H   H10       1.0  0.8142151373399275  0.6072684275139134  0.33296583130531143  1.0000
  C   C20       1.0  0.966262136132958  0.43135692695578515  0.9968938605008091  1.0000
  C   C21       1.0  0.919916006695372  0.3372639548423799  0.07754943175193052  1.0000
  C   C22       1.0  0.8687479399349142  0.2531491599010578  0.009109492983378376  1.0000
  C   C23       1.0  0.8622207764656897  0.2618121759031917  0.8583447097245402  1.0000
  C   C24       1.0  0.9096606791857449  0.3528282057130579  0.7763939056441683  1.0000
  C   C25       1.0  0.9625962052796672  0.43694367290029723  0.8434777768088138  1.0000
  C   C26       1.0  0.8079027589229382  0.16978311662316253  0.7846862424507614  1.0000
  C   C27       1.0  0.8510477877256606  0.052152763787816095  0.7539062342180642  1.0000
  N   N4        1.0  0.8851050283813555  0.9593154048385402  0.7296109502306263  1.0000
  H   H11       1.0  0.05414056726684826  0.7192851310597658  0.07727885313912286  1.0000
  H   H12       1.0  0.9219499567759514  0.3305900805255302  0.194583829487277  1.0000
  H   H13       1.0  0.8335520631106832  0.18189017152176448  0.07397840909828467  1.0000
  H   H14       1.0  0.9065566922717359  0.3557137591201158  0.659470937098769  1.0000
  H   H15       1.0  0.02465801553171399  0.6283465909554944  0.5478070599757165  1.0000
  H   H16       1.0  0.7851735423686189  0.2167605908804371  0.6816861958576292  1.0000
  H   H17       1.0  0.7556118428321912  0.1418109046076423  0.8542999623240339  1.0000
  Zn  Zn1       1.0  0.8770762002394148  0.4319878923912881  0.4192781060384372  1.0000
  Zn  Zn2       1.0  0.05177453397104095  0.4363118929211499  0.4210928261374851  1.0000
  C   C28       1.0  0.9632863123226384  0.43071521949033476  0.6834546662630864  1.0000
  C   C29       1.0  0.9655663293149231  0.4375862521874901  0.1569164274089221  1.0000
  C   C30       1.0  0.964499076174428  0.6712456801653415  0.4144707986332578  1.0000
  C   C31       1.0  0.9643535051948753  0.19705423062796368  0.4259003710781593  1.0000
  O   O1        1.0  0.03162991622023647  0.44131214196885193  0.2113101388131624  1.0000
  O   O2        1.0  0.029814720069236477  0.43027016384242023  0.6304378703620563  1.0000
  O   O3        1.0  0.030793142010066665  0.6245015405307398  0.41323148502715723  1.0000
  O   O4        1.0  0.030651435136629827  0.24708077237973486  0.4285164154511041  1.0000
  O   O5        1.0  0.8981992394578913  0.6212190114584977  0.4118545160979608  1.0000
  O   O6        1.0  0.8972208181693851  0.4269891941804915  0.6290608247665948  1.0000
  O   O7        1.0  0.899036021868514  0.43803111562684244  0.20993136017061031  1.0000
  O   O8        1.0  0.8980575403117492  0.24379973746431663  0.4271377448786531  1.0000
