data_image0
_chemical_formula_structural       NC9NC3SH6C7F3H5C7F3H5Zn2C4O8
_chemical_formula_sum              "N2 C30 S1 H16 F6 Zn2 O8"
_cell_length_a       16.77567553997237
_cell_length_b       9.272718291674593
_cell_length_c       9.272721663655245
_cell_angle_alpha    86.31122681088247
_cell_angle_beta     90.90861439337802
_cell_angle_gamma    90.46558260785916

_space_group_name_H-M_alt    "P 1"
_space_group_IT_number       1

loop_
  _space_group_symop_operation_xyz
  'x, y, z'

loop_
  _atom_site_type_symbol
  _atom_site_label
  _atom_site_symmetry_multiplicity
  _atom_site_fract_x
  _atom_site_fract_y
  _atom_site_fract_z
  _atom_site_occupancy
  N   N1        1.0  0.7363572630043024  0.5893875940037216  0.4291176059855799  1.0000
  C   C1        1.0  0.6816165869944323  0.6444111359825873  0.4757300277021801  1.0000
  C   C2        1.0  0.6136826057704056  0.7126917108970339  0.5335724810635434  1.0000
  C   C3        1.0  0.6159469435133966  0.8110849383353913  0.6398720032279697  1.0000
  C   C4        1.0  0.5402885908538786  0.8595451451642029  0.6752327512566724  1.0000
  C   C5        1.0  0.4781375740540472  0.7990994424386804  0.5963609396286955  1.0000
  C   C6        1.0  0.3915897956946196  0.8281030472488996  0.6086314616294795  1.0000
  C   C7        1.0  0.3348084457113397  0.7393811007971727  0.5432323394712084  1.0000
  C   C8        1.0  0.2531135573512223  0.7661461647868553  0.5543125043322031  1.0000
  C   C9        1.0  0.1956690116813161  0.6744529275153579  0.4873413164483551  1.0000
  N   N2        1.0  0.14950061614906057  0.6007447063750773  0.4335063732923139  1.0000
  C   C10       1.0  0.2273678940060251  0.8819802116440524  0.630615532794639  1.0000
  C   C11       1.0  0.2830543294429391  0.970875509787184  0.6955034153803665  1.0000
  C   C12       1.0  0.3645915591255278  0.9445155656867866  0.6847534634036823  1.0000
  S   S1        1.0  0.5186221715517517  0.6851280590475706  0.4832177254697547  1.0000
  H   H1        1.0  0.6704596741362291  0.8467454071234662  0.6909658421634628  1.0000
  H   H2        1.0  0.5321245922478682  0.9353896729349691  0.7574084197858575  1.0000
  H   H3        1.0  0.3536809748899038  0.6487977114645451  0.48430152628926537  1.0000
  H   H4        1.0  0.164341025705134  0.9036331209444212  0.6397618319919691  1.0000
  H   H5        1.0  0.26300214132148714  0.06077801537791539  0.7540765014070592  1.0000
  H   H6        1.0  0.4059889337359527  0.016558483942624932  0.735004124397796  1.0000
  C   C13       1.0  0.9446530518288022  0.17171314442821015  0.4281449624017797  1.0000
  C   C14       1.0  0.8955654121629197  0.2511216362958537  0.32797048131333795  1.0000
  C   C15       1.0  0.8408935147895348  0.18159564312659482  0.23911441441102244  1.0000
  C   C16       1.0  0.8374073769904226  0.030258066708260582  0.24750774552387036  1.0000
  C   C17       1.0  0.886539136820285  0.9498743525335757  0.3445623878206203  1.0000
  C   C18       1.0  0.9412125486953596  0.018408362243489424  0.43449156705646486  1.0000
  C   C19       1.0  0.7903103605955574  0.2685092855147574  0.12975032929921637  1.0000
  F   F1        1.0  0.7700860724602699  0.3996642898366385  0.18194182899645095  1.0000
  F   F2        1.0  0.7205734516985263  0.19502410960847327  0.09888268488054841  1.0000
  F   F3        1.0  0.8326884084893649  0.2937532597282979  0.0038887326295058383  1.0000
  H   H7        1.0  0.04085082080353675  0.25478308239202124  0.7403659357132855  1.0000
  H   H8        1.0  0.898714165812044  0.36813966405688636  0.321292517187278  1.0000
  H   H9        1.0  0.7972170896896381  0.9736746422760765  0.17773890901995149  1.0000
  H   H10       1.0  0.8832951093875874  0.8330268860738175  0.34646803871900844  1.0000
  H   H11       1.0  0.11320778703068003  0.9081888372615484  0.609874173347031  1.0000
  C   C20       1.0  0.9408330481950965  0.5926644979195701  0.00783508299389624  1.0000
  C   C21       1.0  0.9752409759185734  0.47567797038932996  0.09003395971075134  1.0000
  C   C22       1.0  0.016601247331467395  0.3674588013515461  0.023743995354751576  1.0000
  C   C23       1.0  0.021118961252781787  0.3742224103341172  0.8726922159920975  1.0000
  C   C24       1.0  0.9862507687555513  0.4881943957586832  0.7894975196622471  1.0000
  C   C25       1.0  0.9450325844765647  0.59745703822383  0.854801378490083  1.0000
  C   C26       1.0  0.05123652523724709  0.2409430732089293  0.11349842575011837  1.0000
  F   F4        1.0  0.07791336215332012  0.28358106675292305  0.24633064000578342  1.0000
  F   F5        1.0  0.11502439052210846  0.18305891431629284  0.04460657656337075  1.0000
  F   F6        1.0  0.9931310257157191  0.13556355195558023  0.13513457019556088  1.0000
  H   H12       1.0  0.8889057753487001  0.9345746057527126  0.08609093530289269  1.0000
  H   H13       1.0  0.9712812386821452  0.4704467774358989  0.20679891685955076  1.0000
  H   H14       1.0  0.05092852908607326  0.2903444894768239  0.8184625722330052  1.0000
  H   H15       1.0  0.9896649599713823  0.4887493855956753  0.6728826470570883  1.0000
  H   H16       1.0  0.8009846951989079  0.836682121267654  0.7338134455917695  1.0000
  Zn  Zn1       1.0  0.8555815701841175  0.5926612094179147  0.4303924172058771  1.0000
  Zn  Zn2       1.0  0.030276410513341075  0.5974593973076887  0.43224331677215844  1.0000
  C   C27       1.0  0.9442603247921089  0.5908078384247779  0.6946635618626869  1.0000
  C   C28       1.0  0.9415995568779494  0.5993146405101533  0.16797234750431556  1.0000
  C   C29       1.0  0.9418302910100494  0.8583323186046834  0.42754518113774176  1.0000
  C   C30       1.0  0.9440295384682525  0.33178842705444134  0.4350907914991975  1.0000
  O   O1        1.0  0.008152611226040165  0.6033610869385537  0.22241823594145685  1.0000
  O   O2        1.0  0.01029661445141117  0.590402015654772  0.6416220400877761  1.0000
  O   O3        1.0  0.008333445176571086  0.8064314006472961  0.42592205951273887  1.0000
  O   O4        1.0  0.01011572031132868  0.3873317100098652  0.43811810783454064  1.0000
  O   O5        1.0  0.8757422007713106  0.8027888950798789  0.4245176255042997  1.0000
  O   O6        1.0  0.8777053626230875  0.5867612417273022  0.6402175421702052  1.0000
  O   O7        1.0  0.8755613510580428  0.5997202529636612  0.22101200382304675  1.0000
  O   O8        1.0  0.8775244607180632  0.38369086633527805  0.4367119837588898  1.0000
