data_image0
_chemical_formula_structural       NC9NC3OH6C7OC3NC3H11C7OC6H10Zn2C4O8
_chemical_formula_sum              "N3 C42 O11 H27 Zn2"
_cell_length_a       15.78231758774541
_cell_length_b       10.298746005989749
_cell_length_c       10.299382801718284
_cell_angle_alpha    85.57508548997963
_cell_angle_beta     90.06446718373022
_cell_angle_gamma    89.64076015714046

_space_group_name_H-M_alt    "P 1"
_space_group_IT_number       1

loop_
  _space_group_symop_operation_xyz
  'x, y, z'

loop_
  _atom_site_type_symbol
  _atom_site_label
  _atom_site_symmetry_multiplicity
  _atom_site_fract_x
  _atom_site_fract_y
  _atom_site_fract_z
  _atom_site_occupancy
  N   N1        1.0  0.7983252313847549  0.4131150732301508  0.5700010824699102  1.0000
  C   C1        1.0  0.7497801125517656  0.33104918424474095  0.5940757826152072  1.0000
  C   C2        1.0  0.6895095478831094  0.2291854681645653  0.6239586877445398  1.0000
  C   C3        1.0  0.7091517574029396  0.10122821026935958  0.6614170224427283  1.0000
  C   C4        1.0  0.6324112852022262  0.03921512857014319  0.6796453489113898  1.0000
  C   C5        1.0  0.5706457053186607  0.13391815200915325  0.6519631744185486  1.0000
  C   C6        1.0  0.47755191709399886  0.11640902820543131  0.6571729516257263  1.0000
  C   C7        1.0  0.4238239385308842  0.22376674343983582  0.6256267052690698  1.0000
  C   C8        1.0  0.3356151497004235  0.20940968308290642  0.6299057583762058  1.0000
  C   C9        1.0  0.28119117376603087  0.31989102513172907  0.5974334111880357  1.0000
  N   N2        1.0  0.23744718988876878  0.40870376985731766  0.57132854600996  1.0000
  C   C10       1.0  0.30045302627778636  0.08753512098807278  0.6657800418931525  1.0000
  C   C11       1.0  0.3532501068115562  0.9803993656586281  0.6972654243679433  1.0000
  C   C12       1.0  0.4412731704025262  0.9943620142909755  0.6931026518186265  1.0000
  O   O1        1.0  0.6071220125669943  0.2461535260048473  0.6190587402740155  1.0000
  H   H1        1.0  0.7716053031337011  0.05807642262632595  0.6739984670183066  1.0000
  H   H2        1.0  0.6236628976154307  0.9372493345883933  0.7095101377296484  1.0000
  H   H3        1.0  0.4504445440071579  0.3186067619665305  0.5977054300660776  1.0000
  H   H4        1.0  0.23233478530550103  0.07537543653898782  0.6694020549271615  1.0000
  H   H5        1.0  0.32589928902620924  0.8862077228005966  0.7249962388386408  1.0000
  H   H6        1.0  0.4803460662243366  0.9095029528136594  0.718049541945361  1.0000
  C   C13       1.0  0.01784976726590125  0.029507710809662184  0.5706475262790596  1.0000
  C   C14       1.0  0.057513890262224726  0.03759379148098563  0.44826387549599755  1.0000
  C   C15       1.0  0.07667914652089558  0.9245679613392859  0.3856890926685934  1.0000
  C   C16       1.0  0.057514536439372516  0.802357175846255  0.44821474063578387  1.0000
  C   C17       1.0  0.01793072286756159  0.792301097902665  0.5706933253486572  1.0000
  C   C18       1.0  0.9981455884675905  0.9064414545483758  0.6309774656468121  1.0000
  C   C19       1.0  0.11928416109737666  0.9329081487599241  0.2570031060301856  1.0000
  O   O2        1.0  0.17102433168734965  0.8444059522660482  0.23194740570660174  1.0000
  C   C20       1.0  0.1031950109972643  0.04158970730694911  0.15674935457540862  1.0000
  C   C21       1.0  0.022965822029526132  0.10178561393439113  0.1443994476613466  1.0000
  C   C22       1.0  0.00813946981088476  0.20358861848540674  0.048448387018080075  1.0000
  N   N3        1.0  0.926553714381611  0.2646405072751743  0.03699775018228091  1.0000
  C   C23       1.0  0.07359501183429956  0.2448025189945673  0.9635125925880539  1.0000
  C   C24       1.0  0.15305118537397389  0.18444928510394457  0.9740041023008489  1.0000
  C   C25       1.0  0.1678116980136336  0.08307136220059252  0.06965075781307029  1.0000
  H   H7        1.0  0.944078933744701  0.2215125259618844  0.8027587204814342  1.0000
  H   H8        1.0  0.07437407184065004  0.13193303378324228  0.4020933248515455  1.0000
  H   H9        1.0  0.07280655314109369  0.7150035331232399  0.4005633762730023  1.0000
  H   H10       1.0  0.967575887261477  0.8994564279777464  0.7253150053254962  1.0000
  H   H11       1.0  0.9434558580483369  0.5659789223928423  0.8023138685344581  1.0000
  H   H12       1.0  0.9716395351020158  0.06890845151877723  0.20820651793323708  1.0000
  H   H13       1.0  0.8773089057150949  0.2346923014466653  0.09979965724110927  1.0000
  H   H14       1.0  0.91481491604555  0.3403611774732028  0.9657243111857845  1.0000
  H   H15       1.0  0.06293336647253223  0.32324798568243107  0.8889936866927243  1.0000
  H   H16       1.0  0.2033398218302337  0.2163008515786191  0.9078615998119655  1.0000
  H   H17       1.0  0.22995339678155946  0.03780632943921769  0.0763661226768686  1.0000
  C   C26       1.0  0.017974766895469275  0.4108303148107728  0.18930089597860555  1.0000
  C   C27       1.0  0.10699116320021693  0.4107996220795405  0.18826638705190368  1.0000
  C   C28       1.0  0.151888351224856  0.40929593793129526  0.07068640515260505  1.0000
  C   C29       1.0  0.10678468982333617  0.41082973539794754  0.9530201958755004  1.0000
  C   C30       1.0  0.017805702137626778  0.410978481302543  0.9520399278078977  1.0000
  C   C31       1.0  0.9739168449360764  0.4106331572304023  0.07074764155861257  1.0000
  C   C32       1.0  0.24587824189307794  0.4106476006238253  0.06934217978432922  1.0000
  O   O3        1.0  0.28321796793025866  0.4709865872709473  0.9749318300940772  1.0000
  C   C33       1.0  0.29750828993075307  0.3435400252229852  0.17500044108462554  1.0000
  C   C34       1.0  0.3771548373880882  0.3932040460383987  0.20634564429082025  1.0000
  C   C35       1.0  0.4267187554282339  0.3297668550657942  0.3047461230326236  1.0000
  C   C36       1.0  0.3976736807587806  0.21574523880699004  0.3720154277522594  1.0000
  C   C37       1.0  0.31915055086767463  0.1646228452311378  0.34065051519379774  1.0000
  C   C38       1.0  0.26934521678588697  0.22768371650527208  0.2423513447317931  1.0000
  H   H18       1.0  0.8499877154300455  0.4129001014469517  0.3984178335429278  1.0000
  H   H19       1.0  0.14151022538254723  0.4134035817193171  0.27896975815417324  1.0000
  H   H20       1.0  0.14131215515222817  0.41065424726726246  0.8621730993134218  1.0000
  H   H21       1.0  0.9052919104249684  0.4106576177898804  0.07074093474412768  1.0000
  H   H22       1.0  0.9836240168780735  0.4121406944178932  0.6241216076979903  1.0000
  H   H23       1.0  0.4006882437814292  0.4816482976348107  0.1554866070250569  1.0000
  H   H24       1.0  0.4877149496149893  0.36904127798212794  0.32880558900204804  1.0000
  H   H25       1.0  0.4361597012306815  0.16672717831618009  0.44807225837219256  1.0000
  H   H26       1.0  0.2969962932469232  0.0757087912515948  0.392142456341032  1.0000
  H   H27       1.0  0.20936609785219995  0.1851166254315142  0.21810853599110414  1.0000
  Zn  Zn1       1.0  0.9250463373786344  0.41183859854693283  0.5703916530431565  1.0000
  Zn  Zn2       1.0  0.11072605192436374  0.4099696462217708  0.570948591136496  1.0000
  C   C39       1.0  0.017835245108626763  0.40577636403678147  0.8078656359182279  1.0000
  C   C40       1.0  0.01793917195678074  0.41603349910812404  0.33347474190825377  1.0000
  C   C41       1.0  0.017912215805542236  0.648115932368535  0.5655094865316455  1.0000
  C   C42       1.0  0.017862137719378394  0.17369237099095008  0.5758309602498155  1.0000
  O   O4        1.0  0.08839170936088392  0.4170648113946048  0.38207215641019254  1.0000
  O   O5        1.0  0.08830931468743963  0.40332558030083576  0.7596905506369713  1.0000
  O   O6        1.0  0.0883705193044177  0.5990178563543052  0.5639862425292401  1.0000
  O   O7        1.0  0.0883304414065631  0.22137254525098762  0.5777763669536102  1.0000
  O   O8        1.0  0.9474418845330631  0.6004357001569101  0.563563877029156  1.0000
  O   O9        1.0  0.9473806800932003  0.4047449845280548  0.7592681159850208  1.0000
  O   O10       1.0  0.9474630751642192  0.4184841700581085  0.38164816035245974  1.0000
  O   O11       1.0  0.9474018071838689  0.22279189464383345  0.5773524682633047  1.0000
