data_image0
_chemical_formula_structural       NC9NC3OH6C6NCH9C6NCH7Zn2C4O8
_chemical_formula_sum              "N4 C30 O9 H22 Zn2"
_cell_length_a       15.78231758774541
_cell_length_b       9.273386996610926
_cell_length_c       9.273390368590327
_cell_angle_alpha    86.07317832945773
_cell_angle_beta     90.0787864382203
_cell_angle_gamma    89.03191128213776

_space_group_name_H-M_alt    "P 1"
_space_group_IT_number       1

loop_
  _space_group_symop_operation_xyz
  'x, y, z'

loop_
  _atom_site_type_symbol
  _atom_site_label
  _atom_site_symmetry_multiplicity
  _atom_site_fract_x
  _atom_site_fract_y
  _atom_site_fract_z
  _atom_site_occupancy
  N   N1        1.0  0.7884532569708635  0.5531780349610407  0.4102807516268152  1.0000
  C   C1        1.0  0.7404786512975887  0.46229502372094805  0.43715690740344737  1.0000
  C   C2        1.0  0.680916232152038  0.34948711979308  0.4705171383912503  1.0000
  C   C3        1.0  0.7014479829061881  0.20778127685833467  0.5123348367570137  1.0000
  C   C4        1.0  0.6251386206442091  0.13910595774423373  0.5326840660868217  1.0000
  C   C5        1.0  0.5627146803419953  0.2439849866428509  0.5017799954968685  1.0000
  C   C6        1.0  0.46974261712440907  0.22459553981720193  0.5075955265813137  1.0000
  C   C7        1.0  0.4152682969036013  0.3434871176758909  0.47237873918368734  1.0000
  C   C8        1.0  0.32715931999055825  0.32758832061386567  0.47715528208300184  1.0000
  C   C9        1.0  0.27196728682085525  0.449939013311075  0.44090469222612577  1.0000
  N   N2        1.0  0.22760588395994388  0.5482931696627654  0.41176246604961997  1.0000
  C   C10       1.0  0.2928444610614995  0.1926210162313895  0.5172032825891251  1.0000
  C   C11       1.0  0.3463863404133003  0.07397529477446718  0.5523520957070693  1.0000
  C   C12       1.0  0.43431233402172986  0.08943731137243849  0.5477053605735216  1.0000
  O   O1        1.0  0.5984107404259352  0.3682791189342196  0.46504649615672977  1.0000
  H   H1        1.0  0.7642015115102996  0.15999238305317975  0.5263808326321324  1.0000
  H   H2        1.0  0.6170990859359786  0.026184452034517577  0.5660243889035181  1.0000
  H   H3        1.0  0.44122958015401176  0.44851555644648816  0.44120905374336733  1.0000
  H   H4        1.0  0.22481075549860494  0.1791555362811159  0.5212464105973849  1.0000
  H   H5        1.0  0.3196903374044232  0.9696648899162996  0.5833091591011823  1.0000
  H   H6        1.0  0.4739751633387343  0.9954616418841656  0.5755548514738603  1.0000
  C   C13       1.0  0.010639284011556116  0.12706012396373254  0.411738643523355  1.0000
  C   C14       1.0  0.025538737430877513  0.20898481352367135  0.2814727835461417  1.0000
  C   C15       1.0  0.03245962118931911  0.14301967723248699  0.15117194837438408  1.0000
  C   C16       1.0  0.02458596060112517  0.992771090489265  0.14780524044939458  1.0000
  C   C17       1.0  0.01117988865542618  0.9098620633548835  0.2776234500404069  1.0000
  C   C18       1.0  0.005427990575698202  0.9744000241599526  0.41031709315455633  1.0000
  N   N3        1.0  0.03079093044119528  0.9217488927590679  0.014811318059258173  1.0000
  C   C19       1.0  0.04492952207573331  0.9979931432822253  0.8742130218338282  1.0000
  H   H7        1.0  0.027914048674289475  0.39152784248403294  0.6484198321904622  1.0000
  H   H8        1.0  0.029861077009824658  0.32556383282436596  0.27971913531930426  1.0000
  H   H9        1.0  0.04316140497629872  0.21046214165659727  0.05330811769460932  1.0000
  H   H10       1.0  0.007180558759456671  0.7934813120145787  0.2753362853285921  1.0000
  H   H11       1.0  0.036572466110939665  0.8464229668641541  0.7614613230339284  1.0000
  H   H12       1.0  0.024799594761365704  0.809480181814286  0.017779800718126685  1.0000
  H   H13       1.0  0.9924019913216348  0.07688480960568889  0.8489941270003447  1.0000
  H   H14       1.0  0.10626300673314265  0.0548651303675014  0.8746525327487942  1.0000
  H   H15       1.0  0.04707917880058309  0.9196256921335889  0.7888957478912166  1.0000
  C   C20       1.0  0.008100591647149937  0.5462305661500486  0.9877897627392689  1.0000
  C   C21       1.0  0.08594596835078107  0.5424982023927092  0.061659650285911694  1.0000
  C   C22       1.0  0.16235136881233325  0.5521927889508882  0.9864851824075087  1.0000
  C   C23       1.0  0.16285191734870952  0.5659889841784616  0.8348360121894336  1.0000
  C   C24       1.0  0.08553799918680899  0.567282481863475  0.7601623473757302  1.0000
  C   C25       1.0  0.00796672049157099  0.5552296259418027  0.834265935986356  1.0000
  N   N4        1.0  0.24067930970307783  0.5773288300422637  0.7542901065243353  1.0000
  C   C26       1.0  0.3243436349781752  0.5765682349330348  0.8215603075967466  1.0000
  H   H16       1.0  0.8747779484188324  0.4784150936843343  0.27329475722113417  1.0000
  H   H17       1.0  0.22074366708296733  0.5502157806764127  0.047805403301778515  1.0000
  H   H18       1.0  0.811176289212243  0.44533961887877727  0.7382965994522066  1.0000
  H   H19       1.0  0.23787106444672412  0.586921152511406  0.6413889546778977  1.0000
  H   H20       1.0  0.32927389710634025  0.669057862745893  0.8908921245061597  1.0000
  H   H21       1.0  0.33531417128074037  0.4733230008416904  0.8873221434460118  1.0000
  H   H22       1.0  0.37393581191067304  0.5869228546765314  0.7368189933718511  1.0000
  Zn  Zn1       1.0  0.9151832376420441  0.5517646029627117  0.410716665016291  1.0000
  Zn  Zn2       1.0  0.10087594535255606  0.5496949516091449  0.4113383542636775  1.0000
  C   C27       1.0  0.008025465831213103  0.5477809972848475  0.6742734576801193  1.0000
  C   C28       1.0  0.008035733703870993  0.5536803565877624  0.14778170679515545  1.0000
  C   C29       1.0  0.006409596961487244  0.8141737501857202  0.40484242262133807  1.0000
  C   C30       1.0  0.009651549858141317  0.28728587181761034  0.4172128213900037  1.0000
  O   O2        1.0  0.07848342032679856  0.5553888581487858  0.20171240315405028  1.0000
  O   O3        1.0  0.07851425448328331  0.5445005854176312  0.6208141960117954  1.0000
  O   O4        1.0  0.07720846973706363  0.7596161289013631  0.40324672323528477  1.0000
  O   O5        1.0  0.07978914166229423  0.3402733245432458  0.41927976763600944  1.0000
  O   O6        1.0  0.93626997796449  0.761186230736371  0.40277525142422377  1.0000
  O   O7        1.0  0.9375757520583492  0.5460724198296796  0.6203426444449318  1.0000
  O   O8        1.0  0.9375449185415191  0.5569606238619162  0.20123911885024737  1.0000
  O   O9        1.0  0.9388506399199227  0.341845081085945  0.41880659140702226  1.0000
