data_image0
_chemical_formula_structural       NC5OC5NC4H8C6NCH9C6H6Zn2C4O8
_chemical_formula_sum              "N3 C31 O9 H23 Zn2"
_cell_length_a       19.189071930511275
_cell_length_b       9.273386996610926
_cell_length_c       10.68112160042829
_cell_angle_alpha    85.46621756597041
_cell_angle_beta     89.97791331363976
_cell_angle_gamma    89.38971707573329

_space_group_name_H-M_alt    "P 1"
_space_group_IT_number       1

loop_
  _space_group_symop_operation_xyz
  'x, y, z'

loop_
  _atom_site_type_symbol
  _atom_site_label
  _atom_site_symmetry_multiplicity
  _atom_site_fract_x
  _atom_site_fract_y
  _atom_site_fract_z
  _atom_site_occupancy
  N   N1        1.0  0.6482092811085761  0.578706089342071  0.6159714106196456  1.0000
  C   C1        1.0  0.5934924928855787  0.6299377235951817  0.5982601236306346  1.0000
  C   C2        1.0  0.5254318740032843  0.6936613394164579  0.5762299453598079  1.0000
  C   C3        1.0  0.5151900266134889  0.8013321006338703  0.4782813092754326  1.0000
  C   C4        1.0  0.44907608118930287  0.8633125852058017  0.45700281662081976  1.0000
  C   C5        1.0  0.39254579292064107  0.8175072924882911  0.532366247478828  1.0000
  O   O1        1.0  0.3272404053118038  0.8835220320820905  0.5088979889005651  1.0000
  C   C6        1.0  0.26260582488948236  0.8172967223447064  0.5318224902943762  1.0000
  C   C7        1.0  0.20540605926646882  0.90348881140417  0.5608784754405161  1.0000
  C   C8        1.0  0.139919296769241  0.8418254513657466  0.5829767992099752  1.0000
  C   C9        1.0  0.1309775290994521  0.6931676276010565  0.5749538071916231  1.0000
  C   C10       1.0  0.0635621306785563  0.6296657017022043  0.5975569169246822  1.0000
  N   N2        1.0  0.009364129583298006  0.5786123620161985  0.615729235515639  1.0000
  C   C11       1.0  0.18770579456640535  0.6066330812213465  0.5440493978756873  1.0000
  C   C12       1.0  0.253183474804998  0.6683402552113009  0.5219930886384325  1.0000
  C   C13       1.0  0.40326471886096893  0.7108392492913382  0.6318740369732181  1.0000
  C   C14       1.0  0.46936977422170495  0.648854205099638  0.6532117222033291  1.0000
  H   H1        1.0  0.5582553955690375  0.8374493704566649  0.41854886635536914  1.0000
  H   H2        1.0  0.4416182778623911  0.9466709732654116  0.3812167523701606  1.0000
  H   H3        1.0  0.21185746471165282  0.018548177468748137  0.5670554861816205  1.0000
  H   H4        1.0  0.0963248607692836  0.909997594069748  0.6061224866410522  1.0000
  H   H5        1.0  0.1812470084194539  0.49174385332745757  0.5363535337864018  1.0000
  H   H6        1.0  0.29606763271220404  0.6003999580977861  0.49555525653785926  1.0000
  H   H7        1.0  0.3608960324083051  0.677140748706779  0.6939686461414307  1.0000
  H   H8        1.0  0.4768282199666398  0.5666598391887414  0.7300486264096042  1.0000
  C   C15       1.0  0.8309330210859802  0.15500469986471122  0.6164642543925574  1.0000
  C   C16       1.0  0.843169241086448  0.23847712396913678  0.5032263785007449  1.0000
  C   C17       1.0  0.8488439612237839  0.17397276164940334  0.3899859033505093  1.0000
  C   C18       1.0  0.8423683042506791  0.02367377695357442  0.387088047934491  1.0000
  C   C19       1.0  0.8313601679155236  0.9392381198775093  0.49993176577352905  1.0000
  C   C20       1.0  0.8266471209964954  0.002302668170891751  0.61524724283579  1.0000
  N   N3        1.0  0.8474539137715109  0.9541331427836633  0.27151008478618177  1.0000
  C   C21       1.0  0.8590630650253075  0.032026627097871074  0.14929716590169217  1.0000
  H   H9        1.0  0.8451703926805908  0.4171457279955672  0.8220526882676422  1.0000
  H   H10       1.0  0.846723661561061  0.3551220952288727  0.5016876056974725  1.0000
  H   H11       1.0  0.8576322737204456  0.24257259956049657  0.3049162676430577  1.0000
  H   H12       1.0  0.8280708618635496  0.822837903591134  0.49795841398915264  1.0000
  H   H13       1.0  0.8523056884157199  0.8709340636873619  0.9202425233355769  1.0000
  H   H14       1.0  0.8425270856995256  0.8417672983217006  0.2741102216102038  1.0000
  H   H15       1.0  0.8158616732975217  0.11061139578532696  0.12756781899041525  1.0000
  H   H16       1.0  0.9095031621039247  0.08956529042813786  0.14946541953048564  1.0000
  H   H17       1.0  0.8608198259927548  0.9545895767215047  0.0751588260997702  1.0000
  C   C22       1.0  0.8287900937118795  0.5786536735716002  0.24811050833712578  1.0000
  C   C23       1.0  0.7793164450462471  0.49843010651917097  0.18683671483717412  1.0000
  C   C24       1.0  0.7793164010688951  0.49843019903629915  0.05595457478058452  1.0000
  C   C25       1.0  0.8287900385705234  0.5786537443057729  0.983600943948626  1.0000
  C   C26       1.0  0.8782228544677774  0.6588108300030243  0.04487428021378337  1.0000
  C   C27       1.0  0.8782228456649629  0.6588108076345862  0.17576657891494077  1.0000
  H   H18       1.0  0.8788210631919645  0.6597817429450958  0.5412178804410731  1.0000
  H   H19       1.0  0.740536663661777  0.4355470831272805  0.2399901034144334  1.0000
  H   H20       1.0  0.7405366487640689  0.4355471510404058  0.011486074101117797  1.0000
  H   H21       1.0  0.9170076996240147  0.721702139770476  0.9917652116765623  1.0000
  H   H22       1.0  0.9170076647684959  0.7217020892056043  0.22018957925715554  1.0000
  H   H23       1.0  0.8788212832318887  0.659781240253347  0.6792888553037626  1.0000
  Zn  Zn1       1.0  0.7524307972514696  0.5786751929775373  0.6159087559764467  1.0000
  Zn  Zn2       1.0  0.9051426902934268  0.5786315005622701  0.6158021460998011  1.0000
  C   C28       1.0  0.828817584633142  0.5729063767016866  0.8445857752313228  1.0000
  C   C29       1.0  0.8287575613132157  0.5844021366683143  0.3871252459790584  1.0000
  C   C30       1.0  0.8274536722472461  0.8421453311569015  0.6104869677287104  1.0000
  C   C31       1.0  0.8301214303567952  0.31516144892138276  0.6212241227729354  1.0000
  O   O2        1.0  0.8867000425244173  0.5863084984020693  0.4337394129948811  1.0000
  O   O3        1.0  0.8867799022333385  0.5709657650830096  0.7978903348581031  1.0000
  O   O4        1.0  0.8856777444935314  0.7883796260204929  0.6088538899025644  1.0000
  O   O5        1.0  0.8878021481018005  0.36889464779979875  0.622775764075834  1.0000
  O   O6        1.0  0.7697712873300137  0.7884120457564892  0.6089351380302048  1.0000
  O   O7        1.0  0.770873436299055  0.570999918127203  0.7979715137242707  1.0000
  O   O8        1.0  0.7707935768908457  0.5863426011722903  0.43381908631064425  1.0000
  O   O9        1.0  0.7718956825175705  0.36892874025128797  0.6228555312959747  1.0000
