data_image0
_chemical_formula_structural       NC5NC3OH4C6ClH5C9H10Zn2C4O8
_chemical_formula_sum              "N2 C27 O9 H19 Cl1 Zn2"
_cell_length_a       13.84702359539666
_cell_length_b       10.30297070629231
_cell_length_c       10.297187173949778
_cell_angle_alpha    85.56773501040368
_cell_angle_beta     89.95979786321969
_cell_angle_gamma    89.99918224466363

_space_group_name_H-M_alt    "P 1"
_space_group_IT_number       1

loop_
  _space_group_symop_operation_xyz
  'x, y, z'

loop_
  _atom_site_type_symbol
  _atom_site_label
  _atom_site_symmetry_multiplicity
  _atom_site_fract_x
  _atom_site_fract_y
  _atom_site_fract_z
  _atom_site_occupancy
  N   N1        1.0  0.9098280872573498  0.42069958838334554  0.5668814476713355  1.0000
  C   C1        1.0  0.8376649877338864  0.4129018924229863  0.623707675650857  1.0000
  C   C2        1.0  0.7477948791736777  0.4031921139882009  0.6944683029466958  1.0000
  C   C3        1.0  0.66023360698888  0.41257237581456296  0.6261084575723954  1.0000
  C   C4        1.0  0.5723496000142666  0.4033011010455845  0.6936736978311995  1.0000
  C   C5        1.0  0.48252210048191496  0.41295880935082757  0.6232926300636916  1.0000
  N   N2        1.0  0.4103124184008208  0.42072286537853615  0.5667118625570986  1.0000
  C   C6        1.0  0.5720214449433595  0.3846215850394792  0.8298018800004049  1.0000
  C   C7        1.0  0.6592024680131312  0.375232579066474  0.8982230312697952  1.0000
  C   C8        1.0  0.7474017580317847  0.3844441047046192  0.8310945595066321  1.0000
  O   O1        1.0  0.834303109803766  0.3750390705408202  0.8996341241690494  1.0000
  H   H1        1.0  0.6604924135313505  0.4270437637576603  0.5206480554257644  1.0000
  H   H2        1.0  0.504448931477008  0.37732460007573065  0.8829788333401607  1.0000
  H   H3        1.0  0.6581653774491918  0.3607898947132612  0.0034748994371475114  1.0000
  H   H4        1.0  0.8358022349639406  0.3615220613586035  0.9981393235165766  1.0000
  C   C9        1.0  0.16007484684434117  0.039463775628087554  0.5668022390183891  1.0000
  C   C10       1.0  0.2597864733791133  0.0363284682258944  0.5917882023594427  1.0000
  C   C11       1.0  0.3092607211507603  0.9178159684543207  0.6041854796836261  1.0000
  C   C12       1.0  0.25978647262857923  0.8012204995483317  0.5917881412687598  1.0000
  C   C13       1.0  0.16007485712572156  0.8019487174505279  0.5668023133740898  1.0000
  C   C14       1.0  0.11070509302399434  0.9216627574798368  0.5544310984746041  1.0000
  Cl  Cl1       1.0  0.4338242996172226  0.9154027394336879  0.6353988113824125  1.0000
  H   H5        1.0  0.12251522375869373  0.36794790924732074  0.5573897369952172  1.0000
  H   H6        1.0  0.29944421056669146  0.12560674477013434  0.6017256156904078  1.0000
  H   H7        1.0  0.2994441724071486  0.7104055519286103  0.6017255223768312  1.0000
  H   H8        1.0  0.03380446072612076  0.9231524744873513  0.535161132465213  1.0000
  H   H9        1.0  0.12251521896704909  0.47491994260150805  0.5573899822455286  1.0000
  C   C15       1.0  0.16020253355772554  0.4206593055446435  0.18534905619892816  1.0000
  C   C16       1.0  0.062334616376467755  0.4563143224308636  0.1819003164548998  1.0000
  C   C17       1.0  0.012193997830513233  0.4745812207612299  0.06351702166335516  1.0000
  C   C18       1.0  0.06195523223626287  0.45645204077820245  0.9466777199560457  1.0000
  C   C19       1.0  0.1599472003453719  0.4207531770466472  0.948255452429239  1.0000
  C   C20       1.0  0.2084309272324465  0.4030886570859009  0.06798031213054001  1.0000
  C   C21       1.0  0.9063427916008462  0.5131444042132298  0.0692191331552432  1.0000
  C   C22       1.0  0.8387328702106567  0.460922394141149  0.9689702005061064  1.0000
  C   C23       1.0  0.867449920151383  0.6041528519218125  0.9578609727868361  1.0000
  H   H10       1.0  0.19791678048177477  0.40693206606208165  0.5142153757749621  1.0000
  H   H11       1.0  0.02455230507396111  0.47007944044542027  0.271991271882678  1.0000
  H   H12       1.0  0.025221332974819873  0.4698318628245847  0.8540830699289752  1.0000
  H   H13       1.0  0.28393789151469084  0.37557941674329376  0.0699137401098342  1.0000
  H   H14       1.0  0.34502277257596115  0.3533114625801511  0.7440201974751117  1.0000
  H   H15       1.0  0.8723206303454923  0.5255403612187901  0.16530794652124792  1.0000
  H   H16       1.0  0.8714379848291587  0.40232576068592807  0.8944341319603023  1.0000
  H   H17       1.0  0.7636756048097596  0.44335217259534265  0.004114216659926398  1.0000
  H   H18       1.0  0.9175995459847931  0.6325607273052287  0.8765775840948202  1.0000
  H   H19       1.0  0.8091756446341491  0.6702949175995261  0.986509717677375  1.0000
  Zn  Zn1       1.0  0.05425704993527303  0.4207028309707665  0.566839999115268  1.0000
  Zn  Zn2       1.0  0.2658834281138682  0.4207090011579686  0.5667639122363675  1.0000
  C   C24       1.0  0.15999330006350237  0.4155633817432146  0.8040498054194054  1.0000
  C   C25       1.0  0.16014948889650268  0.42585008856623896  0.3295542325960432  1.0000
  C   C26       1.0  0.16007163348620113  0.6578221666380544  0.5616259475127252  1.0000
  C   C27       1.0  0.16007108323727007  0.18358974387221427  0.5719781597825624  1.0000
  O   O2        1.0  0.24044279424203618  0.427588840383774  0.37792193255125306  1.0000
  O   O3        1.0  0.24031951917956754  0.41382833349855525  0.7556239833549512  1.0000
  O   O4        1.0  0.24038169132484513  0.6094553662162157  0.559865003295589  1.0000
  O   O5        1.0  0.24038054991561048  0.23196181693929027  0.5736808152403912  1.0000
  O   O6        1.0  0.07975985591583681  0.6094500151887516  0.559923096130376  1.0000
  O   O7        1.0  0.07969768378939858  0.41382454226958254  0.7556820069290318  1.0000
  O   O8        1.0  0.0798209594388064  0.4275850037211412  0.37797839437955694  1.0000
  O   O9        1.0  0.07975871507583498  0.23195797100278748  0.5737373744580514  1.0000
