data_image0
_chemical_formula_structural       NC5OC5NC4H8C6NCH9C9H10Zn2C4O8
_chemical_formula_sum              "N3 C34 O9 H27 Zn2"
_cell_length_a       19.189071930511275
_cell_length_b       9.273386996610926
_cell_length_c       10.297187173949778
_cell_angle_alpha    85.47297527559209
_cell_angle_beta     89.95213100257865
_cell_angle_gamma    89.38971707573329

_space_group_name_H-M_alt    "P 1"
_space_group_IT_number       1

loop_
  _space_group_symop_operation_xyz
  'x, y, z'

loop_
  _atom_site_type_symbol
  _atom_site_label
  _atom_site_symmetry_multiplicity
  _atom_site_fract_x
  _atom_site_fract_y
  _atom_site_fract_z
  _atom_site_occupancy
  N   N1        1.0  0.648556948033569  0.5785098066498625  0.5643809605371451  1.0000
  C   C1        1.0  0.5938446088723415  0.6297389290913538  0.5460094752875533  1.0000
  C   C2        1.0  0.5257895239540094  0.6934594205966054  0.5231581096358371  1.0000
  C   C3        1.0  0.5155722811868179  0.8011162907555984  0.42155838262795586  1.0000
  C   C4        1.0  0.44946368090374117  0.8630937576154272  0.3994867220998235  1.0000
  C   C5        1.0  0.3929144613987854  0.8172991529264854  0.47765936755611266  1.0000
  O   O1        1.0  0.3276149689985857  0.8833105642559627  0.4533163163384526  1.0000
  C   C6        1.0  0.26297462995901627  0.8170885056673525  0.47709534151443006  1.0000
  C   C7        1.0  0.20576756549471725  0.9032847154415412  0.5072344049746902  1.0000
  C   C8        1.0  0.14027525191542992  0.8416244893835255  0.5301564562871228  1.0000
  C   C9        1.0  0.13133549961511073  0.692965527799512  0.5218344026941679  1.0000
  C   C10       1.0  0.0639144233103067  0.6294668074697245  0.5452800561530866  1.0000
  N   N2        1.0  0.009711857342492297  0.5784160449787598  0.564129758218882  1.0000
  C   C11       1.0  0.1880715282460897  0.6064265985618842  0.48977801400556875  1.0000
  C   C12       1.0  0.25355474901272357  0.6681306445299251  0.4668995433408405  1.0000
  C   C13       1.0  0.4036083910583631  0.7106452219068151  0.580876366301035  1.0000
  C   C14       1.0  0.46970808640886  0.648663203821898  0.6030094258414649  1.0000
  H   H1        1.0  0.558652654886424  0.8372250893337972  0.3595993790440306  1.0000
  H   H2        1.0  0.4420249149783094  0.9464413977086752  0.32087568935163957  1.0000
  H   H3        1.0  0.21221741927951907  0.018344957528701578  0.5136416672920574  1.0000
  H   H4        1.0  0.0966750017364608  0.9097999146048651  0.5541649123352644  1.0000
  H   H5        1.0  0.18161467529432204  0.4915362792418981  0.4817952822206397  1.0000
  H   H6        1.0  0.29644554808316903  0.600186598007691  0.4394762260647879  1.0000
  H   H7        1.0  0.3612241064872833  0.6769555275688557  0.6452855872187918  1.0000
  H   H8        1.0  0.47714723078212057  0.566479734907302  0.6827104692001851  1.0000
  C   C15       1.0  0.8312805642089941  0.15480848706752082  0.564892175341017  1.0000
  C   C16       1.0  0.8435452294774319  0.23826485179621495  0.4474332934465323  1.0000
  C   C17       1.0  0.8492483955356706  0.17374442973212378  0.329971715404793  1.0000
  C   C18       1.0  0.8427734665016338  0.02344503406294707  0.32696584078575114  1.0000
  C   C19       1.0  0.8317369839107097  0.9390253804631874  0.4440158721626515  1.0000
  C   C20       1.0  0.8269949698318828  0.0021062827773354904  0.5636297989887166  1.0000
  N   N3        1.0  0.8478881091185687  0.9538880086465394  0.20707964355601335  1.0000
  C   C21       1.0  0.8595279601642837  0.03176416074599019  0.08031116885459565  1.0000
  H   H9        1.0  0.8454662921459751  0.4169786717140713  0.7781440346082904  1.0000
  H   H10       1.0  0.8471000364905987  0.35490960482746137  0.4458371620149011  1.0000
  H   H11       1.0  0.8580580774598741  0.24233220308237627  0.24173106081219892  1.0000
  H   H12       1.0  0.8284481735631974  0.8226248843164078  0.4419689625720934  1.0000
  H   H13       1.0  0.8525769226694992  0.8707809326710827  0.8799939514285453  1.0000
  H   H14       1.0  0.8429606278941982  0.8415225329355259  0.20977670195380677  1.0000
  H   H15       1.0  0.8163320268318522  0.11034584778127134  0.05777184822185588  1.0000
  H   H16       1.0  0.9099680149777177  0.08930284793795695  0.08048569423276185  1.0000
  H   H17       1.0  0.8613033446260868  0.9543165960832547  0.003409280417841612  1.0000
  C   C22       1.0  0.8292301670146766  0.5784052209106415  0.18280783463285322  1.0000
  C   C23       1.0  0.7584071849465621  0.6180496090105501  0.1793160102569504  1.0000
  C   C24       1.0  0.7221224850093567  0.6383603555793337  0.060910642299090816  1.0000
  C   C25       1.0  0.758132643064144  0.6182027367253204  0.9440932475654503  1.0000
  C   C26       1.0  0.8290453881095843  0.5785095949574721  0.9457141170513855  1.0000
  C   C27       1.0  0.8641310708367925  0.5588686265388139  0.06546032258211998  1.0000
  C   C28       1.0  0.6455223269732695  0.6812382995929886  0.06656615513169784  1.0000
  C   C29       1.0  0.5970277713541674  0.6232236722096633  0.9664147030614483  1.0000
  C   C30       1.0  0.6169452775757056  0.7823791139226021  0.9550636520708982  1.0000
  H   H18       1.0  0.8565223431289688  0.5631420586752287  0.51169073616844  1.0000
  H   H19       1.0  0.7310656799186778  0.6333548793547672  0.26939033210232094  1.0000
  H   H20       1.0  0.7315498494409044  0.6330796032681195  0.8514824310323824  1.0000
  H   H21       1.0  0.9187723559960672  0.5282814307105692  0.06742699236015626  1.0000
  H   H22       1.0  0.9629770460391006  0.5035219669671833  0.7415603638704442  1.0000
  H   H23       1.0  0.6209018836213077  0.6950212156605148  0.16263998904949095  1.0000
  H   H24       1.0  0.6209574934459628  0.5581013894305585  0.8919703220373467  1.0000
  H   H25       1.0  0.5429643663345681  0.6037170089701334  0.001600041210042753  1.0000
  H   H26       1.0  0.6529741382932582  0.8139348787631795  0.873725056677915  1.0000
  H   H27       1.0  0.5745221541844339  0.8558922335453496  0.9836123833944849  1.0000
  Zn  Zn1       1.0  0.752778479915261  0.5784789013996585  0.5643159704066106  1.0000
  Zn  Zn2       1.0  0.905490399737538  0.5784351938649974  0.5642053865863911  1.0000
  C   C31       1.0  0.8291078238042842  0.5727425160586379  0.8015170551594155  1.0000
  C   C32       1.0  0.8291627142200501  0.5841733990531071  0.32700442540851243  1.0000
  C   C33       1.0  0.827802716860106  0.8419482706619626  0.5586920819290826  1.0000
  C   C34       1.0  0.8304677778045055  0.3149659111678926  0.5698294705129812  1.0000
  O   O2        1.0  0.8870934859880856  0.5860863715998663  0.3753561619189394  1.0000
  O   O3        1.0  0.887081871263452  0.5707952821007838  0.7530810157811321  1.0000
  O   O4        1.0  0.8860271993342946  0.7881823339227425  0.5569981302014024  1.0000
  O   O5        1.0  0.8881481057784005  0.3686993300998067  0.571438950124855  1.0000
  O   O6        1.0  0.7701207217613091  0.788214765181334  0.557082406899049  1.0000
  O   O7        1.0  0.7711753849370993  0.5708294466577497  0.7531652206355453  1.0000
  O   O8        1.0  0.7711870003406381  0.5861204856693432  0.37543880510270355  1.0000
  O   O9        1.0  0.7722416201567055  0.36873343386386903  0.5715216907133351  1.0000
