data_image0
_chemical_formula_structural       Cd2H72C64Br4N24O8
_chemical_formula_sum              "Cd2 H72 C64 Br4 N24 O8"
_cell_length_a       9.9817
_cell_length_b       16.6382
_cell_length_c       17.0675
_cell_angle_alpha    100.54399999999998
_cell_angle_beta     107.00299999999999
_cell_angle_gamma    90.0

_space_group_name_H-M_alt    "P 1"
_space_group_IT_number       1

loop_
  _space_group_symop_operation_xyz
  'x, y, z'

loop_
  _atom_site_type_symbol
  _atom_site_label
  _atom_site_symmetry_multiplicity
  _atom_site_fract_x
  _atom_site_fract_y
  _atom_site_fract_z
  _atom_site_occupancy
  Cd  Cd1       1.0  0.0  0.0  0.0  1.0000
  Cd  Cd2       1.0  0.0  0.49999999999999994  0.0  1.0000
  H   H1        1.0  0.15179999999999982  0.833  0.9738  1.0000
  H   H2        1.0  0.7807999999999997  0.8657  0.8479999999999995  1.0000
  H   H3        1.0  0.775  0.7506000000000005  0.7514  1.0000
  H   H4        1.0  0.1560999999999998  0.7144000000000005  0.8858  1.0000
  H   H5        1.0  0.05239999999999978  0.4558  0.6273999999999995  1.0000
  H   H6        1.0  0.09829999999999997  0.5164  0.7136  1.0000
  H   H7        1.0  0.09449999999999992  0.5863000000000005  0.5762  1.0000
  H   H8        1.0  0.20099999999999976  0.6072  0.6659999999999996  1.0000
  H   H9        1.0  0.8947  0.5639  0.4918  1.0000
  H   H10       1.0  0.7424999999999999  0.5887  0.4902  1.0000
  H   H11       1.0  0.7194  0.49990000000000007  0.5704  1.0000
  H   H12       1.0  0.8342999999999999  0.44450000000000023  0.5472  1.0000
  H   H13       1.0  0.6724  0.4904  0.7016  1.0000
  H   H14       1.0  0.5040999999999997  0.6091  0.8743999999999995  1.0000
  H   H15       1.0  0.7081999999999999  0.5948  0.973  1.0000
  H   H16       1.0  0.8745  0.4862  0.8082  1.0000
  H   H17       1.0  0.0524  0.6201  0.7688  1.0000
  H   H18       1.0  0.38099999999999995  0.5918000000000004  0.7288  1.0000
  H   H19       1.0  0.178  0.6670000000000005  0.026199999999999998  1.0000
  H   H20       1.0  0.9328  0.6343000000000004  0.15199999999999989  1.0000
  H   H21       1.0  0.023599999999999993  0.7494  0.2486  1.0000
  H   H22       1.0  0.27029999999999993  0.7856  0.11419999999999994  1.0000
  H   H23       1.0  0.42499999999999993  0.0442  0.3726  1.0000
  H   H24       1.0  0.38469999999999993  0.9836  0.2864  1.0000
  H   H25       1.0  0.5182999999999999  0.9137  0.4237999999999998  1.0000
  H   H26       1.0  0.535  0.8928000000000005  0.334  1.0000
  H   H27       1.0  0.4029  0.9361000000000005  0.5082  1.0000
  H   H28       1.0  0.25229999999999975  0.9112999999999999  0.5097999999999996  1.0000
  H   H29       1.0  0.149  9.999999999999228e-05  0.4296  1.0000
  H   H30       1.0  0.2871  0.05549999999999999  0.4528  1.0000
  H   H31       1.0  0.9708  0.0096  0.2984  1.0000
  H   H32       1.0  0.6297  0.8909  0.1256  1.0000
  H   H33       1.0  0.7352  0.9052000000000001  0.027  1.0000
  H   H34       1.0  0.06630000000000001  0.013799999999999984  0.1918  1.0000
  H   H35       1.0  0.2836  0.8799000000000003  0.2312  1.0000
  H   H36       1.0  0.6521999999999997  0.9082  0.2711999999999998  1.0000
  H   H37       1.0  0.8481999999999998  0.167  0.026199999999999998  1.0000
  H   H38       1.0  0.21919999999999995  0.1343000000000001  0.15199999999999989  1.0000
  H   H39       1.0  0.22499999999999998  0.24940000000000004  0.2486  1.0000
  H   H40       1.0  0.8439  0.2856  0.11419999999999994  1.0000
  H   H41       1.0  0.9475999999999999  0.5442  0.3726  1.0000
  H   H42       1.0  0.9017  0.4836  0.2864  1.0000
  H   H43       1.0  0.9054999999999999  0.4137  0.4237999999999998  1.0000
  H   H44       1.0  0.7989999999999999  0.3928  0.334  1.0000
  H   H45       1.0  0.1053  0.4361  0.5082  1.0000
  H   H46       1.0  0.25749999999999973  0.4112999999999999  0.5097999999999996  1.0000
  H   H47       1.0  0.2806  0.5001  0.4296  1.0000
  H   H48       1.0  0.16569999999999996  0.5555  0.4528  1.0000
  H   H49       1.0  0.32759999999999995  0.5096  0.2984  1.0000
  H   H50       1.0  0.4959  0.3909  0.1256  1.0000
  H   H51       1.0  0.2918  0.4052000000000001  0.027  1.0000
  H   H52       1.0  0.1255  0.5138  0.1918  1.0000
  H   H53       1.0  0.9475999999999999  0.37990000000000024  0.2312  1.0000
  H   H54       1.0  0.6189999999999997  0.40820000000000023  0.2711999999999998  1.0000
  H   H55       1.0  0.822  0.333  0.9738  1.0000
  H   H56       1.0  0.06719999999999982  0.36570000000000014  0.8479999999999995  1.0000
  H   H57       1.0  0.9763999999999999  0.2506  0.7514  1.0000
  H   H58       1.0  0.7296999999999999  0.2144  0.8858  1.0000
  H   H59       1.0  0.5749999999999997  0.9557999999999999  0.6273999999999995  1.0000
  H   H60       1.0  0.6153  0.016400000000000053  0.7136  1.0000
  H   H61       1.0  0.4817  0.08629999999999999  0.5762  1.0000
  H   H62       1.0  0.4649999999999998  0.10719999999999992  0.6659999999999996  1.0000
  H   H63       1.0  0.5971  0.0639  0.4918  1.0000
  H   H64       1.0  0.7477  0.08870000000000001  0.4902  1.0000
  H   H65       1.0  0.851  0.9999  0.5704  1.0000
  H   H66       1.0  0.7129  0.9445000000000005  0.5472  1.0000
  H   H67       1.0  0.029199999999999973  0.9904  0.7016  1.0000
  H   H68       1.0  0.37029999999999963  0.10909999999999995  0.8743999999999995  1.0000
  H   H69       1.0  0.26479999999999976  0.09480000000000005  0.973  1.0000
  H   H70       1.0  0.9337  0.9862000000000001  0.8082  1.0000
  H   H71       1.0  0.7164  0.12010000000000005  0.7688  1.0000
  H   H72       1.0  0.34779999999999994  0.0918  0.7288  1.0000
  C   C1        1.0  0.07349999999999995  0.8169  0.9278  1.0000
  C   C2        1.0  0.861  0.836  0.8549999999999995  1.0000
  C   C3        1.0  0.8548  0.7655000000000001  0.797  1.0000
  C   C4        1.0  0.07700000000000012  0.745  0.8748  1.0000
  C   C5        1.0  0.9673699999999998  0.7182000000000003  0.80734  1.0000
  C   C6        1.0  0.8788299999999999  0.6112  0.68046  1.0000
  C   C7        1.0  0.05670999999999998  0.5129  0.65402  1.0000
  C   C8        1.0  0.1520400000000001  0.5626  0.62168  1.0000
  C   C9        1.0  0.80177  0.5427000000000003  0.48753999999999975  1.0000
  C   C10       1.0  0.8108399999999999  0.5008  0.56128  1.0000
  C   C11       1.0  0.3911  0.5067  0.637  1.0000
  C   C12       1.0  0.6767499999999999  0.5128000000000005  0.7565  1.0000
  C   C13       1.0  0.56324  0.5493000000000003  0.77508  1.0000
  C   C14       1.0  0.577  0.5824  0.859  1.0000
  C   C15       1.0  0.7009999999999997  0.5743000000000003  0.9174  1.0000
  C   C16       1.0  0.7978899999999999  0.5102000000000004  0.82158  1.0000
  C   C17       1.0  0.1457  0.6831000000000005  0.0722  1.0000
  C   C18       1.0  0.006  0.664  0.145  1.0000
  C   C19       1.0  0.05780000000000003  0.7345000000000005  0.203  1.0000
  C   C20       1.0  0.20219999999999996  0.755  0.1252  1.0000
  C   C21       1.0  0.16003  0.7818  0.19266  1.0000
  C   C22       1.0  0.1983699999999999  0.8888000000000004  0.31954  1.0000
  C   C23       1.0  0.40268999999999994  0.9871000000000001  0.34598  1.0000
  C   C24       1.0  0.53036  0.9374  0.37832  1.0000
  C   C25       1.0  0.31422999999999995  0.9573  0.51246  1.0000
  C   C26       1.0  0.24956  0.9992  0.43872  1.0000
  C   C27       1.0  0.7541  0.9933  0.363  1.0000
  C   C28       1.0  0.92025  0.9872  0.2435  1.0000
  C   C29       1.0  0.7881599999999999  0.9507  0.22492  1.0000
  C   C30       1.0  0.718  0.9176  0.141  1.0000
  C   C31       1.0  0.7836  0.9257  0.0826  1.0000
  C   C32       1.0  0.9763099999999999  0.9898  0.17842  1.0000
  C   C33       1.0  0.9265  0.1831  0.0722  1.0000
  C   C34       1.0  0.139  0.16400000000000003  0.145  1.0000
  C   C35       1.0  0.1452  0.2345  0.203  1.0000
  C   C36       1.0  0.923  0.255  0.1252  1.0000
  C   C37       1.0  0.03262999999999999  0.2818  0.19266  1.0000
  C   C38       1.0  0.12116999999999993  0.3888000000000002  0.31954  1.0000
  C   C39       1.0  0.94329  0.4871  0.34598  1.0000
  C   C40       1.0  0.8479599999999999  0.4374  0.37832  1.0000
  C   C41       1.0  0.19822999999999988  0.4573000000000002  0.51246  1.0000
  C   C42       1.0  0.18916  0.4992  0.43872  1.0000
  C   C43       1.0  0.6089  0.4933  0.363  1.0000
  C   C44       1.0  0.32325  0.4872000000000001  0.2435  1.0000
  C   C45       1.0  0.43676  0.4507000000000002  0.22492  1.0000
  C   C46       1.0  0.42299999999999993  0.4176  0.141  1.0000
  C   C47       1.0  0.299  0.42570000000000024  0.0826  1.0000
  C   C48       1.0  0.20210999999999998  0.4898  0.17842  1.0000
  C   C49       1.0  0.8543  0.3169  0.9278  1.0000
  C   C50       1.0  0.9939999999999998  0.33599999999999997  0.8549999999999995  1.0000
  C   C51       1.0  0.9422  0.2655  0.797  1.0000
  C   C52       1.0  0.7978  0.245  0.8748  1.0000
  C   C53       1.0  0.8399699999999999  0.21819999999999998  0.80734  1.0000
  C   C54       1.0  0.80163  0.11120000000000006  0.68046  1.0000
  C   C55       1.0  0.59731  0.012900000000000057  0.65402  1.0000
  C   C56       1.0  0.46963999999999995  0.06260000000000002  0.62168  1.0000
  C   C57       1.0  0.6857699999999999  0.042699999999999974  0.48753999999999975  1.0000
  C   C58       1.0  0.7504400000000001  0.0008000000000000049  0.56128  1.0000
  C   C59       1.0  0.2459  0.006700000000000003  0.637  1.0000
  C   C60       1.0  0.07975000000000002  0.012799999999999999  0.7565  1.0000
  C   C61       1.0  0.21184  0.04930000000000005  0.77508  1.0000
  C   C62       1.0  0.28200000000000003  0.08240000000000006  0.859  1.0000
  C   C63       1.0  0.21639999999999984  0.07430000000000003  0.9174  1.0000
  C   C64       1.0  0.023689999999999833  0.010200000000000013  0.82158  1.0000
  Br  Br1       1.0  0.28028  0.97159  0.09644  1.0000
  Br  Br2       1.0  0.18383999999999984  0.5284100000000004  0.90356  1.0000
  Br  Br3       1.0  0.71972  0.028410000000000005  0.90356  1.0000
  Br  Br4       1.0  0.81616  0.47159000000000023  0.09644  1.0000
  N   N1        1.0  0.96891  0.8647999999999998  0.9186199999999995  1.0000
  N   N2        1.0  0.91435  0.5406  0.6387  1.0000
  N   N3        1.0  0.9771399999999999  0.6458000000000004  0.7540799999999995  1.0000
  N   N4        1.0  0.81167  0.5393  0.90074  1.0000
  N   N5        1.0  0.2546700000000001  0.5128000000000005  0.59274  1.0000
  N   N6        1.0  0.43571  0.5553000000000005  0.71562  1.0000
  N   N7        1.0  0.05029  0.6352000000000001  0.08138  1.0000
  N   N8        1.0  0.27564999999999995  0.9594000000000009  0.3613  1.0000
  N   N9        1.0  0.22306  0.8542  0.24592  1.0000
  N   N10       1.0  0.9109299999999998  0.9607  0.09926  1.0000
  N   N11       1.0  0.66193  0.9872  0.40726  1.0000
  N   N12       1.0  0.72009  0.9447  0.28438  1.0000
  N   N13       1.0  0.031089999999999986  0.1352  0.08138  1.0000
  N   N14       1.0  0.08565  0.4594  0.3613  1.0000
  N   N15       1.0  0.022859999999999957  0.35420000000000024  0.24592  1.0000
  N   N16       1.0  0.18833  0.4607  0.09926  1.0000
  N   N17       1.0  0.74533  0.4872000000000001  0.40726  1.0000
  N   N18       1.0  0.56429  0.4447000000000001  0.28438  1.0000
  N   N19       1.0  0.94971  0.3648  0.9186199999999995  1.0000
  N   N20       1.0  0.72435  0.0406  0.6387  1.0000
  N   N21       1.0  0.7769399999999997  0.1458  0.7540799999999995  1.0000
  N   N22       1.0  0.08907  0.039299999999999995  0.90074  1.0000
  N   N23       1.0  0.33807  0.012799999999999999  0.59274  1.0000
  N   N24       1.0  0.27990999999999994  0.0553  0.71562  1.0000
  O   O1        1.0  0.76735  0.6415000000000003  0.6547  1.0000
  O   O2        1.0  0.46734  0.46  0.60948  1.0000
  O   O3        1.0  0.11265  0.8585  0.3453  1.0000
  O   O4        1.0  0.8578599999999998  0.03999999999999997  0.39052  1.0000
  O   O5        1.0  0.23265  0.3585000000000002  0.3453  1.0000
  O   O6        1.0  0.53266  0.54  0.39052  1.0000
  O   O7        1.0  0.8873499999999999  0.1415  0.6547  1.0000
  O   O8        1.0  0.14214  0.9600000000000004  0.60948  1.0000
