data_image0
_chemical_formula_structural       NC5NC3BrH3C6NCH9C6NH7Zn2C4O8
_chemical_formula_sum              "N4 C25 Br1 H19 Zn2 O8"
_cell_length_a       13.839083392302014
_cell_length_b       9.273386996610926
_cell_length_c       9.274774538082514
_cell_angle_alpha    84.97283399596293
_cell_angle_beta     90.35089926540529
_cell_angle_gamma    89.42455387291925

_space_group_name_H-M_alt    "P 1"
_space_group_IT_number       1

loop_
  _space_group_symop_operation_xyz
  'x, y, z'

loop_
  _atom_site_type_symbol
  _atom_site_label
  _atom_site_symmetry_multiplicity
  _atom_site_fract_x
  _atom_site_fract_y
  _atom_site_fract_z
  _atom_site_occupancy
  N   N1        1.0  0.8921700524008209  0.5933627426194688  0.40539833793770796  1.0000
  C   C1        1.0  0.8206258990062892  0.5296676970110259  0.4079707495061222  1.0000
  C   C2        1.0  0.7314869979895053  0.4504090391372146  0.4111715610011253  1.0000
  C   C3        1.0  0.6433816035667983  0.5266730751783206  0.4080918798200819  1.0000
  C   C4        1.0  0.5558732195359463  0.45188300010288746  0.41111197972326785  1.0000
  C   C5        1.0  0.46554846492360047  0.5305004096261872  0.4079371040238322  1.0000
  N   N2        1.0  0.3929390532599659  0.5937026452799252  0.4053845555611636  1.0000
  C   C6        1.0  0.5564066410743057  0.30051712392038715  0.41722439848867493  1.0000
  C   C7        1.0  0.6440678627989624  0.2241317190803535  0.4203088893508507  1.0000
  C   C8        1.0  0.7317774188951099  0.29820706941028535  0.41731767147507304  1.0000
  Br  Br1       1.0  0.8499733319203966  0.1880241743514528  0.4217671382950412  1.0000
  H   H1        1.0  0.6429131557281913  0.6439688203141261  0.40335507292482564  1.0000
  H   H2        1.0  0.4891360803866153  0.2416150567109332  0.4196026990353061  1.0000
  H   H3        1.0  0.6437713169354552  0.10708539310995024  0.4250352465634468  1.0000
  C   C9        1.0  0.14553351419969895  0.16987453843264277  0.40610059501025497  1.0000
  C   C10       1.0  0.16195805030532529  0.25449743051803875  0.2756041613079243  1.0000
  C   C11       1.0  0.16928452878520583  0.1911357293744731  0.14509991079359863  1.0000
  C   C12       1.0  0.16029164233678683  0.04085808194082973  0.14175540571817935  1.0000
  C   C13       1.0  0.14556805614818402  0.9552773766258404  0.27179847889653225  1.0000
  C   C14       1.0  0.13958494570398172  0.017179597927617023  0.4046948532311505  1.0000
  N   N3        1.0  0.16679008439959153  0.9724828524463877  0.0085567927625454  1.0000
  C   C15       1.0  0.18230218437111922  0.05161608258306425  0.867716258545527  1.0000
  H   H4        1.0  0.16625872877896408  0.4299703564170832  0.6430494977529853  1.0000
  H   H5        1.0  0.16687917437190247  0.37116207995966644  0.2738333540142157  1.0000
  H   H6        1.0  0.181063079788768  0.2605993707041514  0.047064535151612144  1.0000
  H   H7        1.0  0.14099772523128773  0.8388930278853733  0.2695217954711704  1.0000
  H   H8        1.0  0.1766223302353791  0.882782292267758  0.756217461133747  1.0000
  H   H9        1.0  0.15997108700978857  0.8600850451955734  0.01154980218115109  1.0000
  H   H10       1.0  0.12229599605224939  0.1303672406853269  0.8426416786705717  1.0000
  H   H11       1.0  0.2522422248721652  0.10921327173677618  0.8679472309112066  1.0000
  H   H12       1.0  0.18438324372495196  0.9749247925204158  0.7822739163690353  1.0000
  C   C16       1.0  0.14079921102513487  0.5972158183551559  0.9815753209273633  1.0000
  C   C17       1.0  0.20866994267291283  0.6823987185957705  0.048168696695078284  1.0000
  C   C18       1.0  0.2809591122154498  0.7557004483358103  0.9672802440654503  1.0000
  C   C19       1.0  0.28596486065532134  0.7441519037214872  0.8183218593356236  1.0000
  C   C20       1.0  0.2183818270957649  0.6621473361593666  0.7500206396275835  1.0000
  C   C21       1.0  0.14431926035939605  0.5898382974532743  0.8292200959801723  1.0000
  N   N4        1.0  0.3499405442628707  0.8406833905194507  0.03687916748162667  1.0000
  H   H13       1.0  0.9983445822822719  0.31509538607872156  0.10796751293356133  1.0000
  H   H14       1.0  0.2068825623777819  0.6892398675358189  0.1641775216856947  1.0000
  H   H15       1.0  0.34178326009797866  0.7999301815507978  0.7546970639541042  1.0000
  H   H16       1.0  0.222718812446433  0.6581372224869443  0.6338541296948761  1.0000
  H   H17       1.0  0.04537261162160644  0.40421024627437496  0.5634489355900407  1.0000
  H   H18       1.0  0.3470710683252707  0.8497286032392205  0.1482341573444197  1.0000
  H   H19       1.0  0.4043722218433967  0.8953262092370697  0.9775449773738134  1.0000
  Zn  Zn1       1.0  0.03668123358861375  0.5934568905424378  0.40540270800912515  1.0000
  Zn  Zn2       1.0  0.2484279964172016  0.593596569347906  0.4053920494363809  1.0000
  C   C22       1.0  0.1436920951189593  0.5854854599785311  0.6690066206723873  1.0000
  C   C23       1.0  0.14141943496351606  0.6015698205267397  0.14178827529246088  1.0000
  C   C24       1.0  0.14068051066714782  0.857070972874716  0.3992092803995504  1.0000
  C   C25       1.0  0.1444309596493656  0.3299825735920552  0.4115856953908823  1.0000
  O   O1        1.0  0.22198442493634343  0.6030777768054083  0.1955531719104202  1.0000
  O   O2        1.0  0.22383800456204006  0.5840824319354454  0.6152332207879749  1.0000
  O   O3        1.0  0.22140503501456044  0.8033911544907573  0.39736995722242585  1.0000
  O   O4        1.0  0.22441732170715523  0.3837690654646715  0.413416327248199  1.0000
  O   O5        1.0  0.06069183603983985  0.8032843943796433  0.39737843019335006  1.0000
  O   O6        1.0  0.06312479309446119  0.5839774058168026  0.6152416139293573  1.0000
  O   O7        1.0  0.06127120668007269  0.6029727155149518  0.19555982992150245  1.0000
  O   O8        1.0  0.06370410396873227  0.38366399291361075  0.4134230934830945  1.0000
