data_image0
_chemical_formula_structural       NC9NC3OCH8C12NH11C12IH9Zn2C4O8
_chemical_formula_sum              "N3 C41 O9 H28 I1 Zn2"
_cell_length_a       17.728193572023454
_cell_length_b       10.299770795358612
_cell_length_c       10.29977335064465
_cell_angle_alpha    85.53972113204546
_cell_angle_beta     90.71329701694225
_cell_angle_gamma    88.47103896228896

_space_group_name_H-M_alt    "P 1"
_space_group_IT_number       1

loop_
  _space_group_symop_operation_xyz
  'x, y, z'

loop_
  _atom_site_type_symbol
  _atom_site_label
  _atom_site_symmetry_multiplicity
  _atom_site_fract_x
  _atom_site_fract_y
  _atom_site_fract_z
  _atom_site_occupancy
  N   N1        1.0  0.710716135862294  0.38732483836817355  0.5850836527723822  1.0000
  C   C1        1.0  0.6500954479145685  0.3498934396626157  0.5980913872642913  1.0000
  C   C2        1.0  0.5746310445579978  0.303361210152826  0.6142806760362751  1.0000
  C   C3        1.0  0.5627008162076128  0.17532202238506647  0.6237092222600125  1.0000
  C   C4        1.0  0.4859790980992878  0.1258667068191679  0.6386631755570467  1.0000
  C   C5        1.0  0.4278537311658492  0.20853021705723052  0.656128005469091  1.0000
  C   C6        1.0  0.3497955021352501  0.16347634672212633  0.6778653103565454  1.0000
  C   C7        1.0  0.2884726712440882  0.24895454444607856  0.642397910357183  1.0000
  C   C8        1.0  0.21418970165523202  0.2096462835684472  0.6625486355344625  1.0000
  C   C9        1.0  0.1518885687998613  0.2976618811097951  0.6250067054489739  1.0000
  N   N2        1.0  0.10181186560333104  0.36841789378534706  0.5948265424373351  1.0000
  C   C10       1.0  0.2005981697418741  0.08473965674894361  0.7192208648145048  1.0000
  C   C11       1.0  0.2610225487203719  0.9995785815810252  0.756096820863312  1.0000
  C   C12       1.0  0.3352017714717861  0.038397183193977794  0.7360757118166277  1.0000
  O   O1        1.0  0.441244288676332  0.34231454338258116  0.6548242004207555  1.0000
  C   C13       1.0  0.5089787865273263  0.39970883776849064  0.6062106787673094  1.0000
  H   H1        1.0  0.609609913217764  0.10586280734271927  0.6216123464337643  1.0000
  H   H2        1.0  0.47829993432333495  0.02221939135347606  0.6366870347645806  1.0000
  H   H3        1.0  0.298384218943362  0.3457921391178525  0.5979649238713451  1.0000
  H   H4        1.0  0.14337714242652022  0.05344688242086072  0.7353630985219729  1.0000
  H   H5        1.0  0.25037451509839953  0.9033997054317545  0.8009909067037304  1.0000
  H   H6        1.0  0.3807187041511897  0.9711576883252374  0.7685003575885715  1.0000
  H   H7        1.0  0.4995085551896026  0.43566921925424923  0.5026813218163876  1.0000
  H   H8        1.0  0.521887854176122  0.4840765599866859  0.6627882507379086  1.0000
  C   C14       1.0  0.9061992462312894  0.9965059529763255  0.5899930791762633  1.0000
  C   C15       1.0  0.8842837625507101  0.006778797679169992  0.45803672731662415  1.0000
  C   C16       1.0  0.8732482288832722  0.8948446354743463  0.3911400325846579  1.0000
  C   C17       1.0  0.8844218821134263  0.7714905269544778  0.45797161527784414  1.0000
  C   C18       1.0  0.9063360001957044  0.759226456296469  0.5899284836653209  1.0000
  C   C19       1.0  0.9171023298428699  0.8722950625092031  0.6552001587887804  1.0000
  C   C20       1.0  0.8500632495232089  0.9067660981247304  0.25153787943557404  1.0000
  C   C21       1.0  0.7951094137594031  0.000613757340988792  0.2049817226866384  1.0000
  C   C22       1.0  0.7733200688677896  0.01170344871191187  0.07358792135417769  1.0000
  C   C23       1.0  0.8060722579104865  0.9293854601783152  0.9866598668436447  1.0000
  C   C24       1.0  0.8608449218035434  0.8357448993072377  0.03232095150273162  1.0000
  C   C25       1.0  0.8826947164628668  0.8243962685029542  0.16368628573247057  1.0000
  N   N3        1.0  0.783752429342023  0.940861717349423  0.8522683448739342  1.0000
  H   H9        1.0  0.9145179674477342  0.32004532834929705  0.6402908997204804  1.0000
  H   H10       1.0  0.8767453770185051  0.10206342857487498  0.40649669307679803  1.0000
  H   H11       1.0  0.8749892903631986  0.6849322108169473  0.4073244961540443  1.0000
  H   H12       1.0  0.934008559189413  0.8636020196775631  0.7569986254909818  1.0000
  H   H13       1.0  0.9147191032227185  0.4270992542633687  0.6401962866577462  1.0000
  H   H14       1.0  0.7682710574413683  0.06430310894369098  0.2705163582840391  1.0000
  H   H15       1.0  0.7307707535989247  0.08425114091392283  0.03961637325818779  1.0000
  H   H16       1.0  0.8867499352604113  0.7717553138649537  0.9660737915959862  1.0000
  H   H17       1.0  0.9258224177576495  0.7523313042211731  0.19623269992592096  1.0000
  H   H18       1.0  0.807846215384577  0.879920810011042  0.7867289489355263  1.0000
  H   H19       1.0  0.7429693509829821  0.010384301001647335  0.8173176290537874  1.0000
  C   C26       1.0  0.9062316675298766  0.3779740158889495  0.2085907044015531  1.0000
  C   C27       1.0  0.9746519142937943  0.443669797154761  0.20395181260845938  1.0000
  C   C28       1.0  0.009357255383953817  0.47684878308294315  0.08447212673017157  1.0000
  C   C29       1.0  0.9747244661223202  0.443452133401945  0.9686840257156502  1.0000
  C   C30       1.0  0.9063035877168932  0.3777583876165448  0.9713309433929632  1.0000
  C   C31       1.0  0.8724406091944309  0.34538611563389643  0.09176197736924994  1.0000
  C   C32       1.0  0.08173987177482546  0.5463471324184908  0.0806185768530141  1.0000
  C   C33       1.0  0.0936294198020684  0.6487913747467815  0.16071620997711844  1.0000
  C   C34       1.0  0.16179541273913034  0.7140881782508905  0.15688840850765828  1.0000
  C   C35       1.0  0.21882957200898062  0.6779713645008423  0.0733228548129785  1.0000
  C   C36       1.0  0.20766812307185853  0.5763781201095008  0.9933860215747483  1.0000
  C   C37       1.0  0.1395786452813728  0.510851645849842  0.9968098076604333  1.0000
  I   I1        1.0  0.32159930771868045  0.7766418446022844  0.06785555619536288  1.0000
  H   H20       1.0  0.8801385243591971  0.35300700478485103  0.5378062699293348  1.0000
  H   H21       1.0  0.0016417450041417148  0.4676119814042672  0.29359879472959993  1.0000
  H   H22       1.0  0.000718763283459986  0.4703831680364795  0.8762162775636977  1.0000
  H   H23       1.0  0.8196570803116159  0.2947059677252375  0.09457230109693104  1.0000
  H   H24       1.0  0.8802438477855538  0.3526897717849327  0.6448890818801688  1.0000
  H   H25       1.0  0.049875874111977796  0.6794844649872861  0.22501438540872362  1.0000
  H   H26       1.0  0.1701614266339435  0.7929606234402232  0.2186756227023927  1.0000
  H   H27       1.0  0.25179269809019655  0.5479033197634142  0.9288057492121999  1.0000
  H   H28       1.0  0.1325239458993661  0.4313749208936444  0.9352162188077231  1.0000
  Zn  Zn1       1.0  0.8235779268807287  0.3818652301330187  0.5879027403037735  1.0000
  Zn  Zn2       1.0  0.9889500992823109  0.3738668953951652  0.5920180935044946  1.0000
  C   C38       1.0  0.906287378270226  0.3726255963159548  0.8271570716050545  1.0000
  C   C39       1.0  0.9062424540576224  0.383108080438415  0.3527639344709183  1.0000
  C   C40       1.0  0.9063057829470513  0.615057689394063  0.5847654479508894  1.0000
  C   C41       1.0  0.9062239926775946  0.14067442978246558  0.5951556260916904  1.0000
  O   O2        1.0  0.9690039506810653  0.3817901273653275  0.40271154309272406  1.0000
  O   O3        1.0  0.9690395338370685  0.36787201878450976  0.7803325470755181  1.0000
  O   O4        1.0  0.9690535499674802  0.563639040453247  0.5845995748460404  1.0000
  O   O5        1.0  0.9689898781128181  0.18602311774354122  0.5984444165421541  1.0000
  O   O6        1.0  0.8435380916168149  0.5697090105154976  0.5814764158549155  1.0000
  O   O7        1.0  0.843524075756199  0.37394354915545613  0.7772093187065864  1.0000
  O   O8        1.0  0.8434884924950515  0.3878616129197355  0.3995867533233288  1.0000
  O   O9        1.0  0.8434744199312336  0.19209459398185302  0.5953197241416077  1.0000
