data_image0
_chemical_formula_structural       NC8Cl2C7NH8C12H10C12H10Zn2C4O8
_chemical_formula_sum              "N2 C43 Cl2 H28 Zn2 O8"
_cell_length_a       18.42689100911083
_cell_length_b       14.994056859933256
_cell_length_c       13.024585202197207
_cell_angle_alpha    85.82059027263038
_cell_angle_beta     93.92807891465861
_cell_angle_gamma    89.98648032565991

_space_group_name_H-M_alt    "P 1"
_space_group_IT_number       1

loop_
  _space_group_symop_operation_xyz
  'x, y, z'

loop_
  _atom_site_type_symbol
  _atom_site_label
  _atom_site_symmetry_multiplicity
  _atom_site_fract_x
  _atom_site_fract_y
  _atom_site_fract_z
  _atom_site_occupancy
  N   N1        1.0  0.6271754530699459  0.9724193324987417  0.8640809573682269  1.0000
  C   C1        1.0  0.5750657311415784  0.9294157231111735  0.8596537348689618  1.0000
  C   C2        1.0  0.5102460096370576  0.8759244673569859  0.8541473484786606  1.0000
  C   C3        1.0  0.45046751896333265  0.9042287087945561  0.7879337107819403  1.0000
  C   C4        1.0  0.387585713558431  0.8522566490275145  0.782449595705198  1.0000
  C   C5        1.0  0.38275711038247495  0.7715711807981763  0.8444506704541539  1.0000
  C   C6        1.0  0.4442850012011552  0.7428468727274188  0.9089692911648329  1.0000
  C   C7        1.0  0.5071278725561387  0.7950324495120726  0.9142300756789665  1.0000
  C   C8        1.0  0.31381092205632083  0.7152369953415108  0.8339269695286076  1.0000
  Cl  Cl1       1.0  0.31809691819754926  0.660957450739635  0.7162619876882199  1.0000
  Cl  Cl2       1.0  0.308758214850449  0.6282548306053107  0.9352003960728279  1.0000
  C   C9        1.0  0.24548252137244586  0.7727420088267763  0.8366130515304723  1.0000
  C   C10       1.0  0.1837511035100388  0.7639425969679671  0.7677400905077975  1.0000
  C   C11       1.0  0.12147334478006558  0.8158949257440984  0.7745634137167556  1.0000
  C   C12       1.0  0.11912249835698109  0.8763870604801001  0.8510523496812734  1.0000
  C   C13       1.0  0.1790974735452311  0.8842830141115454  0.9214666690940845  1.0000
  C   C14       1.0  0.2414159361749416  0.8324715081721153  0.9149078880380583  1.0000
  C   C15       1.0  0.054882154649454576  0.9296723516598775  0.857936591251554  1.0000
  N   N2        1.0  0.0032382322435612954  0.9725105022488344  0.8634708543841676  1.0000
  H   H1        1.0  0.452535191089418  0.9662988551865854  0.7401405050588873  1.0000
  H   H2        1.0  0.342383557473348  0.8750860366528596  0.729525764218313  1.0000
  H   H3        1.0  0.444775710306664  0.6800746227019401  0.9553407196656329  1.0000
  H   H4        1.0  0.5534998513269977  0.7719549044592997  0.9648597430694721  1.0000
  H   H5        1.0  0.182664638565986  0.7169264315159856  0.7086287427599296  1.0000
  H   H6        1.0  0.07493579780688016  0.8084709529651392  0.7203946893594947  1.0000
  H   H7        1.0  0.1776158722413099  0.9302037232047873  0.9817909474586484  1.0000
  H   H8        1.0  0.2867773485312355  0.8389816986021896  0.9712361567120078  1.0000
  C   C16       1.0  0.8152749368225338  0.7105006708807062  0.8637021731983165  1.0000
  C   C17       1.0  0.8450048855735687  0.6679360318232106  0.7834594033057518  1.0000
  C   C18       1.0  0.8450005619601619  0.5747115293877993  0.7835168574486269  1.0000
  C   C19       1.0  0.8152211363425851  0.5220006526494999  0.8637452763350459  1.0000
  C   C20       1.0  0.7854765218912505  0.5646683109045951  0.9439320570214932  1.0000
  C   C21       1.0  0.7855352479113151  0.6578934651421411  0.9439203638607758  1.0000
  C   C22       1.0  0.8151843079269251  0.42292399438431943  0.8637899258070021  1.0000
  C   C23       1.0  0.7543469939031113  0.3734167489615378  0.8935560072655697  1.0000
  C   C24       1.0  0.7543058667245474  0.2801960395078815  0.8935537011611333  1.0000
  C   C25       1.0  0.8151461442802487  0.2344223575405502  0.8638585525081524  1.0000
  C   C26       1.0  0.8759704952681648  0.28382316521155493  0.8341461119028153  1.0000
  C   C27       1.0  0.8759872828591088  0.3770526438418145  0.8340662533975128  1.0000
  H   H9        1.0  0.7852166301756837  0.9182125666550598  0.9447390694116213  1.0000
  H   H10       1.0  0.8681493298954022  0.7066548197231014  0.7203729632483453  1.0000
  H   H11       1.0  0.8674561928432813  0.5438954470165611  0.7199636435855188  1.0000
  H   H12       1.0  0.7629964587910623  0.5258845366967463  0.007514129297780723  1.0000
  H   H13       1.0  0.7624125397720296  0.6886755270965537  0.006986592276154392  1.0000
  H   H14       1.0  0.7063187363551319  0.40687067966016777  0.9155591054415113  1.0000
  H   H15       1.0  0.706506705093321  0.2440203976622434  0.9165816417754955  1.0000
  H   H16       1.0  0.9237521808279118  0.2504974567295443  0.8111455534409223  1.0000
  H   H17       1.0  0.9240393767852213  0.41319858850406005  0.8120332161064548  1.0000
  H   H18       1.0  0.8765934199624669  0.02347260866962331  0.8338220662431415  1.0000
  C   C28       1.0  0.8003372391027762  0.9713872422776049  0.5615852793456213  1.0000
  C   C29       1.0  0.7842778059199318  0.04266850359127283  0.4872027881142142  1.0000
  C   C30       1.0  0.8090708838339388  0.041308730003488676  0.3882820595001345  1.0000
  C   C31       1.0  0.849864053328831  0.9684285883031082  0.361746914164424  1.0000
  C   C32       1.0  0.8666126599228339  0.8976550721985695  0.4360552526487942  1.0000
  C   C33       1.0  0.8418561318261919  0.8989399908115899  0.5350191633423429  1.0000
  C   C34       1.0  0.8771533063547504  0.967611884028161  0.2575023256960709  1.0000
  C   C35       1.0  0.9528341196675492  0.9647218339317558  0.24969646856781974  1.0000
  C   C36       1.0  0.9820031473130844  0.969459408797527  0.15342622838656816  1.0000
  C   C37       1.0  0.9361043252753064  0.97733224702169  0.06365445404379688  1.0000
  C   C38       1.0  0.8607965591137575  0.9793883114361771  0.0697168323884958  1.0000
  C   C39       1.0  0.830083801517765  0.9735357647064744  0.16597539382211934  1.0000
  H   H19       1.0  0.7728269397427786  0.9017248662449509  0.8115515720718138  1.0000
  H   H20       1.0  0.752687481241371  0.09960690997057739  0.5054537956022025  1.0000
  H   H21       1.0  0.7965649590229372  0.09715224597076674  0.3323215823151938  1.0000
  H   H22       1.0  0.8985071030074608  0.8411776797004534  0.41712252781939263  1.0000
  H   H23       1.0  0.8553000270953935  0.8431914282910679  0.5906600006273321  1.0000
  H   H24       1.0  0.9894945659587432  0.9603777587199247  0.3185825458965763  1.0000
  H   H25       1.0  0.040374006817432306  0.9677039406446908  0.14844980763491722  1.0000
  H   H26       1.0  0.9589007903326889  0.981271601618368  0.9890516972428633  1.0000
  H   H27       1.0  0.8264347515082632  0.9839246411163498  0.9986411040546893  1.0000
  H   H28       1.0  0.6514327049995388  0.0045829400564765255  0.08173996211464685  1.0000
  Zn  Zn1       1.0  0.7356993436474054  0.9724432759680548  0.8639108379587735  1.0000
  Zn  Zn2       1.0  0.8947147545877852  0.9724792924895768  0.8636494049832003  1.0000
  C   C40       1.0  0.8244603413046939  0.9695758162782346  0.05173168819373575  1.0000
  C   C41       1.0  0.8059554980682814  0.9753478785079226  0.6758286532331759  1.0000
  C   C42       1.0  0.8149649137361997  0.13537540540320794  0.8597281990934729  1.0000
  C   C43       1.0  0.8154508743397134  0.8095472177858728  0.8678321969671767  1.0000
  O   O1        1.0  0.8681865577934215  0.976686880463134  0.7140705595227153  1.0000
  O   O2        1.0  0.8829182847026945  0.968263476000028  0.0132910638900654  1.0000
  O   O3        1.0  0.875249846033116  0.10214874465999703  0.8582468895993354  1.0000
  O   O4        1.0  0.8758549384026546  0.8428016178980873  0.869114656745295  1.0000
  O   O5        1.0  0.7545591055681135  0.10212095054820637  0.8584455862804801  1.0000
  O   O6        1.0  0.7622275412703323  0.9682367534739764  0.01348970602127386  1.0000
  O   O7        1.0  0.7474957535227138  0.9766601224523112  0.7142679643974387  1.0000
  O   O8        1.0  0.7551641379278701  0.8427748537810041  0.8693121387719709  1.0000
