data_image0
_chemical_formula_structural       NC5NC3BrH3C6NH7C6SCH8Zn2C4O8
_chemical_formula_sum              "N3 C25 Br1 H18 S1 Zn2 O8"
_cell_length_a       13.839083392302014
_cell_length_b       9.274771166103582
_cell_length_c       10.302812801239593
_cell_angle_alpha    85.45577702643503
_cell_angle_beta     90.00087154347639
_cell_angle_gamma    90.6230172981901

_space_group_name_H-M_alt    "P 1"
_space_group_IT_number       1

loop_
  _space_group_symop_operation_xyz
  'x, y, z'

loop_
  _atom_site_type_symbol
  _atom_site_label
  _atom_site_symmetry_multiplicity
  _atom_site_fract_x
  _atom_site_fract_y
  _atom_site_fract_z
  _atom_site_occupancy
  N   N1        1.0  0.9209305177778363  0.5792850250868042  0.5653194116037148  1.0000
  C   C1        1.0  0.8484832326372218  0.5156203955083116  0.5676439123043242  1.0000
  C   C2        1.0  0.7582205241269823  0.43639958431774983  0.5705362528267465  1.0000
  C   C3        1.0  0.6711964757096688  0.5126272053245535  0.5677533681648312  1.0000
  C   C4        1.0  0.5826276451739182  0.4378728409647279  0.5704824137895527  1.0000
  C   C5        1.0  0.49341760564415404  0.5164527103490257  0.5676135093983143  1.0000
  N   N2        1.0  0.421704338336637  0.5796247649568271  0.5653069576995378  1.0000
  C   C6        1.0  0.5810148534986844  0.2865792398137381  0.5760057636366109  1.0000
  C   C7        1.0  0.6675930087010203  0.2102303071644385  0.578792994831828  1.0000
  C   C8        1.0  0.7563528771552459  0.2842702882252832  0.5760900477196702  1.0000
  Br  Br1       1.0  0.8729865091337116  0.17414000468924584  0.5801107080517558  1.0000
  H   H1        1.0  0.6723911622989697  0.6298669416900264  0.5634730598833873  1.0000
  H   H2        1.0  0.5129091228594074  0.22770529516365293  0.5781548625691975  1.0000
  H   H3        1.0  0.665636866440557  0.09323986758340141  0.583063862033872  1.0000
  C   C9        1.0  0.16835545156343934  0.15585632048678288  0.5660209185593033  1.0000
  C   C10       1.0  0.1461200856549381  0.23914998854788802  0.44992157743535666  1.0000
  C   C11       1.0  0.13290655577721933  0.17409163970075414  0.3330854088728925  1.0000
  C   C12       1.0  0.14197904991770915  0.024362184159437486  0.3315023225170284  1.0000
  C   C13       1.0  0.16242759133718  0.9397478758733782  0.44600683491142834  1.0000
  C   C14       1.0  0.17428858525819435  0.0030423841850035784  0.5646167479311612  1.0000
  N   N3        1.0  0.11126486976096084  0.26048520848788836  0.21571004791416357  1.0000
  H   H4        1.0  0.27710258027520274  0.23559040637340026  0.8501503758211327  1.0000
  H   H5        1.0  0.1412479577791761  0.3557393914791389  0.44942299254032303  1.0000
  H   H6        1.0  0.1322699101305964  0.9728683754846185  0.24160866708672613  1.0000
  H   H7        1.0  0.16668601395032479  0.8235867493941753  0.44228851826059595  1.0000
  H   H8        1.0  0.24361771352082107  0.706023102148914  0.7579254955256824  1.0000
  H   H9        1.0  0.1046072858844842  0.37255459334584096  0.215668045300428  1.0000
  H   H10       1.0  0.10164669706058405  0.2130086692416464  0.12795147722364963  1.0000
  C   C15       1.0  0.17132204013528307  0.5794493418703437  0.18407035922108392  1.0000
  C   C16       1.0  0.13974212099970762  0.7232784793492106  0.17263545660713175  1.0000
  C   C17       1.0  0.12377834501444851  0.7946303900763825  0.049970583678599516  1.0000
  C   C18       1.0  0.13974203282673114  0.7232783278671566  0.9374842871710287  1.0000
  C   C19       1.0  0.17132197739084346  0.5794493321067737  0.946567262868291  1.0000
  C   C20       1.0  0.18692775952305807  0.5082250028273854  0.07039908466900391  1.0000
  S   S1        1.0  0.08362952937620172  0.9785003203358791  0.03685547730540971  1.0000
  C   C21       1.0  0.9561736017591898  0.9280154900652526  0.040454304060799195  1.0000
  H   H11       1.0  0.18318694932609847  0.5252285948820226  0.5156940167568712  1.0000
  H   H12       1.0  0.12719726054340819  0.7804078223128421  0.2586601233611645  1.0000
  H   H13       1.0  0.127197065629711  0.7804076143894692  0.8433098107282837  1.0000
  H   H14       1.0  0.21126916171304447  0.39727363930031845  0.07831292928025578  1.0000
  H   H15       1.0  0.18318514488834567  0.5252278447620655  0.6226784325287777  1.0000
  H   H16       1.0  0.9385896847722262  0.8638326125878935  0.9569147702849667  1.0000
  H   H17       1.0  0.9385901088337216  0.86383407068068  0.1331494598918792  1.0000
  H   H18       1.0  0.9121492977808695  0.02755014549663625  0.033353881959814924  1.0000
  Zn  Zn1       1.0  0.06544300094717226  0.5793791991708073  0.5653233271688656  1.0000
  Zn  Zn2       1.0  0.2771917645053703  0.5795187676122038  0.5653137162692514  1.0000
  C   C22       1.0  0.17127959090057931  0.5737027576131599  0.8024485593534957  1.0000
  C   C23       1.0  0.1713574995883862  0.5851970307607066  0.3281886083891279  1.0000
  C   C24       1.0  0.1731621116006221  0.8429061506045208  0.5597086067215713  1.0000
  C   C25       1.0  0.16947489449597966  0.31599190464412596  0.5709286331136435  1.0000
  O   O1        1.0  0.25172690826439736  0.5871726800354384  0.37655237249082235  1.0000
  O   O2        1.0  0.25162258661131576  0.5718319493471862  0.7540771288771091  1.0000
  O   O3        1.0  0.2531416626259806  0.789217093015252  0.558062897264527  1.0000
  O   O4        1.0  0.25020776006649736  0.36978754663869395  0.5725665067456682  1.0000
  O   O5        1.0  0.09242693312659521  0.7891104200982597  0.558070536688897  1.0000
  O   O6        1.0  0.0909078692448446  0.5717270095093563  0.7540846962053366  1.0000
  O   O7        1.0  0.09101219061027277  0.5870676899304483  0.37655837899484274  1.0000
  O   O8        1.0  0.0894930423361582  0.36968254621632535  0.5725726106038737  1.0000
