data_image0
_chemical_formula_structural       NC9NC3SH6C7NC2NH8C7ONH7Zn2C4O8
_chemical_formula_sum              "N5 C32 S1 H21 O9 Zn2"
_cell_length_a       16.77567553997237
_cell_length_b       9.273995741505848
_cell_length_c       10.297855452804892
_cell_angle_alpha    85.68463501801465
_cell_angle_beta     90.3897855956152
_cell_angle_gamma    91.47570659476311

_space_group_name_H-M_alt    "P 1"
_space_group_IT_number       1

loop_
  _space_group_symop_operation_xyz
  'x, y, z'

loop_
  _atom_site_type_symbol
  _atom_site_label
  _atom_site_symmetry_multiplicity
  _atom_site_fract_x
  _atom_site_fract_y
  _atom_site_fract_z
  _atom_site_occupancy
  N   N1        1.0  0.7598231622021274  0.5996417600478523  0.5779661199260999  1.0000
  C   C1        1.0  0.7053808793457748  0.6544141216161861  0.6197076915944335  1.0000
  C   C2        1.0  0.6378171867136012  0.722383001128708  0.6715057897557792  1.0000
  C   C3        1.0  0.6404983305942109  0.8201893390473856  0.7668177258681377  1.0000
  C   C4        1.0  0.5651317436728552  0.8684624879833249  0.7984535306683331  1.0000
  C   C5        1.0  0.5027937262239417  0.808458769148572  0.7276784413597557  1.0000
  C   C6        1.0  0.4164658285805373  0.8374037948997417  0.7386022118373599  1.0000
  C   C7        1.0  0.3591536663753168  0.7490282788208368  0.6800882918108363  1.0000
  C   C8        1.0  0.2776629262067094  0.7757407452545542  0.6899497971992672  1.0000
  C   C9        1.0  0.21966664561885876  0.6844018301781127  0.6300330447448736  1.0000
  N   N2        1.0  0.1730547327945623  0.6109784315391429  0.5818688274924648  1.0000
  C   C10       1.0  0.2526564984083082  0.8911770023834962  0.7581649156890051  1.0000
  C   C11       1.0  0.3088780352860008  0.9797290286708377  0.8162175668167279  1.0000
  C   C12       1.0  0.3902133797966427  0.9534199106675618  0.8066517000305274  1.0000
  S   S1        1.0  0.5427447050845907  0.6951072575949437  0.6262712847360967  1.0000
  H   H1        1.0  0.6950981634638101  0.8555616701545786  0.8126819777819974  1.0000
  H   H2        1.0  0.557287827332825  0.9438532024271222  0.8721361344862952  1.0000
  H   H3        1.0  0.3774443454347377  0.6587515300520538  0.6274089667771632  1.0000
  H   H4        1.0  0.1897938572322382  0.9127862652090083  0.7663072115653371  1.0000
  H   H5        1.0  0.2894028899442516  0.06932668702709142  0.8685776952713518  1.0000
  H   H6        1.0  0.43205630224603864  0.025198654055460967  0.8515947791840844  1.0000
  C   C13       1.0  0.9640581686955854  0.1817561504823764  0.5789461283227617  1.0000
  C   C14       1.0  0.9780693837607214  0.2654190816405697  0.4616107415962123  1.0000
  C   C15       1.0  0.9992149730427036  0.20092532670758456  0.3492147274034154  1.0000
  C   C16       1.0  0.007231273444663347  0.05069857770351405  0.35094620318287384  1.0000
  C   C17       1.0  0.9915458102535112  0.9657125057087935  0.46718975283544734  1.0000
  C   C18       1.0  0.9688272938935604  0.0288531212380645  0.5809001043279514  1.0000
  C   C19       1.0  0.030613986615449788  0.9843861867608246  0.23046229712088673  1.0000
  N   N3        1.0  0.03352990892555541  0.05879324320096946  0.11246043691988027  1.0000
  C   C20       1.0  0.057454783388553254  0.9615915424321227  0.0309935403076238  1.0000
  C   C21       1.0  0.06882556933515382  0.8309642089963308  0.10005669915102455  1.0000
  N   N4        1.0  0.05197968428468469  0.8454556630132584  0.22548721506765523  1.0000
  H   H7        1.0  0.899377500094601  0.44451606230125496  0.7652771792310378  1.0000
  H   H8        1.0  0.9746003149794453  0.3821692975417511  0.4573885959812897  1.0000
  H   H9        1.0  0.010477067311449153  0.26946601356580085  0.2610833569375903  1.0000
  H   H10       1.0  0.9942456434860226  0.8492238229784077  0.46901531563222076  1.0000
  H   H11       1.0  0.9698498972665888  0.7307726166259821  0.7969151878799494  1.0000
  H   H12       1.0  0.06628654185726579  0.9848927636778535  0.9275164678977745  1.0000
  H   H13       1.0  0.08841260838702225  0.732403942271797  0.06173588067864122  1.0000
  H   H14       1.0  0.05630592665400047  0.765006264151392  0.30145452278682683  1.0000
  C   C22       1.0  0.9664748167405518  0.6054488994552232  0.1984817444457456  1.0000
  C   C23       1.0  0.8851105011397363  0.6379833537015531  0.1944025433865897  1.0000
  C   C24       1.0  0.8436597014884939  0.6532378531703429  0.07533125027575727  1.0000
  C   C25       1.0  0.8850117230688654  0.6376562339099001  0.9591679667388919  1.0000
  C   C26       1.0  0.9664106352674906  0.6051603807767282  0.9613644972719957  1.0000
  C   C27       1.0  0.0065592732094395005  0.5889353547230853  0.08147608814798679  1.0000
  C   C28       1.0  0.7577845698696964  0.6879448785610138  0.07359978061876649  1.0000
  O   O1        1.0  0.7286251182462351  0.7486801268545852  0.16727260271096522  1.0000
  N   N5        1.0  0.7065941747876847  0.6524396273054325  0.9684154206473705  1.0000
  H   H15       1.0  0.12031899707678395  0.5444774664237217  0.413425107007286  1.0000
  H   H16       1.0  0.8536581049528077  0.6502684727878141  0.28429283161581265  1.0000
  H   H17       1.0  0.8544764681738555  0.6534473518192707  0.8665258423793069  1.0000
  H   H18       1.0  0.06926703368762156  0.5638570830722016  0.08386655377507934  1.0000
  H   H19       1.0  0.12056796656468509  0.5460224037260537  0.7580895739291473  1.0000
  H   H20       1.0  0.6472456417809747  0.6838444671246218  0.9668429594009637  1.0000
  H   H21       1.0  0.7251746553304879  0.587158283511485  0.8967549621572433  1.0000
  Zn  Zn1       1.0  0.8790728477437855  0.6029094248271872  0.5790998571448704  1.0000
  Zn  Zn2       1.0  0.05380497514701399  0.6076989964797344  0.5807457302739232  1.0000
  C   C29       1.0  0.9663886449230986  0.5994689384677061  0.8171500638325582  1.0000
  C   C30       1.0  0.9664910962722045  0.6111413549685456  0.34269567324770445  1.0000
  C   C31       1.0  0.9679221578860496  0.8687356493538891  0.5753545882028839  1.0000
  C   C32       1.0  0.9649575139234304  0.34187290952630733  0.5844912135702693  1.0000
  O   O2        1.0  0.03280645613083588  0.61486312006345  0.39171977092425253  1.0000
  O   O3        1.0  0.032690920642824535  0.5993812594807794  0.7693747693510633  1.0000
  O   O4        1.0  0.033928357751116245  0.8168175088506289  0.5741232070763842  1.0000
  O   O5        1.0  0.03156895946458715  0.39742687941393307  0.5869712352679355  1.0000
  O   O6        1.0  0.901308803798722  0.8131815402601161  0.5728743515823737  1.0000
  O   O7        1.0  0.9000713764487638  0.5957470238134488  0.768125848595679  1.0000
  O   O8        1.0  0.9001869118382003  0.6112288347261534  0.39046928835603606  1.0000
  O   O9        1.0  0.8989494151024187  0.3937925837234308  0.5857208500622307  1.0000
