data_image0
_chemical_formula_structural       NC5NC3BrH3C6NH7C6NH7Zn2C4O8
_chemical_formula_sum              "N4 C24 Br1 H17 Zn2 O8"
_cell_length_a       13.839083392302014
_cell_length_b       9.274771166103582
_cell_length_c       9.274774538082514
_cell_angle_alpha    84.9550519661537
_cell_angle_beta     90.35089926540529
_cell_angle_gamma    90.6230172981901

_space_group_name_H-M_alt    "P 1"
_space_group_IT_number       1

loop_
  _space_group_symop_operation_xyz
  'x, y, z'

loop_
  _atom_site_type_symbol
  _atom_site_label
  _atom_site_symmetry_multiplicity
  _atom_site_fract_x
  _atom_site_fract_y
  _atom_site_fract_z
  _atom_site_occupancy
  N   N1        1.0  0.9145017739816705  0.5931644111457581  0.4051064142833536  1.0000
  C   C1        1.0  0.842064904831611  0.5294772938840286  0.4076904955676342  1.0000
  C   C2        1.0  0.7518151567784517  0.4502285016145777  0.41090582822371835  1.0000
  C   C3        1.0  0.6647786383711974  0.5264830448024524  0.40781217453315044  1.0000
  C   C4        1.0  0.5762220365749107  0.451702279111136  0.4108459768980812  1.0000
  C   C5        1.0  0.4869991416043911  0.5303099028485176  0.40765669752215006  1.0000
  N   N2        1.0  0.4152755387350465  0.5935042714973333  0.405092569632461  1.0000
  C   C6        1.0  0.5746339947996548  0.3003552439724797  0.4169861277539515  1.0000
  C   C7        1.0  0.6612246394685659  0.223979347092879  0.4200846133619087  1.0000
  C   C8        1.0  0.7499723961296725  0.298045477003001  0.4170798239707516  1.0000
  Br  Br1       1.0  0.8666240445191606  0.18787629679727114  0.42154947765245154  1.0000
  H   H1        1.0  0.665954145077859  0.6437641897236488  0.40305387761453404  1.0000
  H   H2        1.0  0.5065378941829365  0.2414605085108328  0.41937521988384785  1.0000
  H   H3        1.0  0.6592876347856593  0.1069475902910031  0.4248324149012057  1.0000
  C   C9        1.0  0.16192985119064263  0.16972892002758178  0.40588625960422386  1.0000
  C   C10       1.0  0.13917424898353525  0.2541457562626219  0.2768219257293969  1.0000
  C   C11       1.0  0.12543718111423208  0.19021770380497305  0.14693848175788582  1.0000
  C   C12       1.0  0.13450258151088046  0.0405035633566988  0.14517860970342067  1.0000
  C   C13       1.0  0.15546421286802925  0.9547815155878107  0.2724700178610928  1.0000
  C   C14       1.0  0.1678566928554592  0.016928567952423156  0.40432528307314897  1.0000
  N   N3        1.0  0.10326954100778152  0.27774678523633667  0.016455632942380834  1.0000
  H   H4        1.0  0.27195015213353035  0.246714280894879  0.7217448922261309  1.0000
  H   H5        1.0  0.13429988696968187  0.37073998260355623  0.2762676630890184  1.0000
  H   H6        1.0  0.12439063200825573  0.9898794038275216  0.045246390921067636  1.0000
  H   H7        1.0  0.15970597385955965  0.8386563608452465  0.268336471046533  1.0000
  H   H8        1.0  0.23805202954238203  0.7180391785501801  0.6192211170971189  1.0000
  H   H9        1.0  0.09661176891934686  0.38981657643594936  0.016408939831891844  1.0000
  H   H10       1.0  0.09325812581743875  0.2311192399002711  0.9188969271105702  1.0000
  C   C15       1.0  0.16318493525852443  0.5970170072755349  0.9812826913421384  1.0000
  C   C16       1.0  0.23224954496102262  0.6821893045004721  0.04786046055469618  1.0000
  C   C17       1.0  0.30556607241532885  0.7554819101159824  0.9669585781464973  1.0000
  C   C18       1.0  0.3104099626190986  0.7439348029896908  0.8180023092521029  1.0000
  C   C19       1.0  0.24167759681888423  0.6619404428249822  0.7497161137895754  1.0000
  C   C20       1.0  0.16660158519832846  0.5896404046796702  0.8289288180475274  1.0000
  N   N4        1.0  0.37573858001209204  0.8404542741734291  0.03654193164229436  1.0000
  H   H11       1.0  0.016776257147399273  0.3149316915231668  0.10772657128188357  1.0000
  H   H12       1.0  0.2305580465572752  0.689029601898612  0.16386803216267443  1.0000
  H   H13       1.0  0.3670101206264731  0.7997061379002627  0.7543672946039579  1.0000
  H   H14       1.0  0.24595837855712666  0.6579308283055356  0.6335503385590213  1.0000
  H   H15       1.0  0.06505327279310036  0.4040354592782351  0.5631916669997761  1.0000
  H   H16       1.0  0.3729958769471686  0.8494983610037066  0.14789526431085154  1.0000
  H   H17       1.0  0.4309361021685927  0.8950902913069052  0.9771977302979328  1.0000
  Zn  Zn1       1.0  0.059014274696490565  0.5932585473498033  0.40511076710571303  1.0000
  Zn  Zn2       1.0  0.2707629951886483  0.5933982087689589  0.4051000829420939  1.0000
  C   C21       1.0  0.16591341291161554  0.5852881090179414  0.668716140233111  1.0000
  C   C22       1.0  0.16386618256694963  0.60137046748913  0.14149484800047896  1.0000
  C   C23       1.0  0.16670822602211888  0.8568398167085877  0.3988690421535468  1.0000
  C   C24       1.0  0.16307128538712634  0.3298170259758253  0.4113420262233254  1.0000
  O   O1        1.0  0.24445230724995382  0.6028782360671681  0.19525946834229924  1.0000
  O   O2        1.0  0.24603965826265406  0.5838852556146985  0.6149429974006948  1.0000
  O   O3        1.0  0.24668040269213432  0.803166680040728  0.397039553779464  1.0000
  O   O4        1.0  0.2438114902009827  0.38359682285431806  0.41316280373370495  1.0000
  O   O5        1.0  0.08596570742469067  0.8030599332184214  0.39704804631015334  1.0000
  O   O6        1.0  0.0853249748050644  0.5837802425690268  0.6149514097841542  1.0000
  O   O7        1.0  0.08373761651072353  0.602773187854061  0.1952661456019016  1.0000
  O   O8        1.0  0.08309679982177731  0.38349176338200786  0.4131695892191847  1.0000
