data_image0
_chemical_formula_structural       NC5NC3BrH3C6BrH5C7NH4Zn2C4O8
_chemical_formula_sum              "N3 C25 Br2 H12 Zn2 O8"
_cell_length_a       13.839083392302014
_cell_length_b       9.276564384272257
_cell_length_c       9.275157849593905
_cell_angle_alpha    86.064957766791
_cell_angle_beta     89.74163777479679
_cell_angle_gamma    90.61189963838827

_space_group_name_H-M_alt    "P 1"
_space_group_IT_number       1

loop_
  _space_group_symop_operation_xyz
  'x, y, z'

loop_
  _atom_site_type_symbol
  _atom_site_label
  _atom_site_symmetry_multiplicity
  _atom_site_fract_x
  _atom_site_fract_y
  _atom_site_fract_z
  _atom_site_occupancy
  N   N1        1.0  0.9254390134977717  0.563532774466103  0.4090271039963973  1.0000
  C   C1        1.0  0.8529925819990006  0.4999097671143235  0.4115446806125478  1.0000
  C   C2        1.0  0.7627309361816085  0.420740746846259  0.4146772587017975  1.0000
  C   C3        1.0  0.6757058646476665  0.4969185356103865  0.41166323258396  1.0000
  C   C4        1.0  0.5871380376324193  0.42221303980440966  0.414618946433017  1.0000
  C   C5        1.0  0.4979269438910324  0.5007415376632913  0.4115117520335614  1.0000
  N   N2        1.0  0.4262128296638332  0.5638722916948125  0.4090136143224905  1.0000
  C   C6        1.0  0.5855272766345858  0.2710183436244534  0.4206010556143278  1.0000
  C   C7        1.0  0.6721064568523683  0.1947193216435106  0.4236197870627547  1.0000
  C   C8        1.0  0.7608653313148411  0.268710901357615  0.42069233991092236  1.0000
  Br  Br1       1.0  0.8775004412096686  0.15865261400463182  0.42504695109085255  1.0000
  H   H1        1.0  0.6768989782246723  0.6140816270740268  0.4070274048836984  1.0000
  H   H2        1.0  0.5174223370001922  0.21218288398515409  0.4229286482718517  1.0000
  H   H3        1.0  0.6701518853761392  0.07780536035867212  0.42824538036026505  1.0000
  C   C9        1.0  0.17291817279656055  0.1402231331364845  0.4093889713026251  1.0000
  C   C10       1.0  0.16092551243435804  0.2224456106306856  0.2776745162050729  1.0000
  C   C11       1.0  0.1579219789465733  0.1561978746677144  0.14719010118137965  1.0000
  C   C12       1.0  0.1668969792001811  0.006784784074693516  0.14594251022775273  1.0000
  C   C13       1.0  0.17719325478448478  0.922848642885056  0.2756652610963164  1.0000
  C   C14       1.0  0.1787428053762812  0.9871709048515459  0.4086641974434675  1.0000
  Br  Br2       1.0  0.16350010840870022  0.916700115608298  0.9668950750174412  1.0000
  H   H4        1.0  0.14388856501316385  0.40501256836074856  0.6436824857088974  1.0000
  H   H5        1.0  0.15616427262329124  0.33907501160666076  0.27520747862344863  1.0000
  H   H6        1.0  0.1495362289801796  0.22144553227261365  0.04680753160335205  1.0000
  H   H7        1.0  0.18167333685300613  0.8065817705653507  0.272558099347616  1.0000
  H   H8        1.0  0.23138242586719707  0.6914358490658475  0.6331138502391798  1.0000
  C   C15       1.0  0.1770846243078148  0.5596216531305842  0.985832291887817  1.0000
  C   C16       1.0  0.2606937237319366  0.6066899372999917  0.05548585758779879  1.0000
  C   C17       1.0  0.33942403843215657  0.6650944857298962  0.9755556559670299  1.0000
  C   C18       1.0  0.33546477511551154  0.6773590364326134  0.8248863205472214  1.0000
  C   C19       1.0  0.25383427454628316  0.6291243427297568  0.7538921588244683  1.0000
  C   C20       1.0  0.1745763758998775  0.5677723760325264  0.8322209553948463  1.0000
  C   C21       1.0  0.4239940188694673  0.7141717063844624  0.048515069868050764  1.0000
  N   N3        1.0  0.4919666241910401  0.7536165592951456  0.10716213506434769  1.0000
  H   H9        1.0  0.941642650934547  0.5108395056273476  0.09371782697964215  1.0000
  H   H10       1.0  0.3959489793779485  0.723015176249026  0.7620228739276271  1.0000
  H   H11       1.0  0.2536726506561684  0.6367058917399508  0.6368212372259423  1.0000
  H   H12       1.0  0.017025602782601897  0.5288738848522094  0.5548518752816798  1.0000
  Zn  Zn1       1.0  0.06995147121350698  0.5636269655930131  0.40903154306577494  1.0000
  Zn  Zn2       1.0  0.28170024775239  0.5637663945245508  0.40902101214275466  1.0000
  C   C22       1.0  0.17500880079653738  0.5604867904008533  0.6722402656644879  1.0000
  C   C23       1.0  0.17664524255368086  0.5669083921563798  0.145812429317989  1.0000
  C   C24       1.0  0.17765386717475695  0.8270244642428342  0.4030584924243861  1.0000
  C   C25       1.0  0.17400009177734455  0.3003689864164601  0.41499428087639956  1.0000
  O   O1        1.0  0.2568552959148167  0.5694005095422985  0.19949923382920542  1.0000
  O   O2        1.0  0.255511163042915  0.5580994044499408  0.6185450545108879  1.0000
  O   O3        1.0  0.2576459998957028  0.773331960623429  0.40117886688459947  1.0000
  O   O4        1.0  0.25472038719767887  0.35416796259671135  0.4168653133963405  1.0000
  O   O5        1.0  0.09693125950878635  0.7732253974747696  0.4011872418082012  1.0000
  O   O6        1.0  0.09479643479468325  0.5579945731531362  0.6185533511121937  1.0000
  O   O7        1.0  0.09614057251994068  0.5692956113070126  0.19950579783125466  1.0000
  O   O8        1.0  0.09400566340772087  0.3540630550874406  0.41687198545355586  1.0000
