data_image0
_chemical_formula_structural       NC5NC3BrH3C9H10C6BrH4Zn2C4O8
_chemical_formula_sum              "N2 C27 Br2 H17 Zn2 O8"
_cell_length_a       13.839083392302014
_cell_length_b       10.297183801781404
_cell_length_c       9.27656775626242
_cell_angle_alpha    86.09344643719086
_cell_angle_beta     90.18696188566506
_cell_angle_gamma    90.02359494799444

_space_group_name_H-M_alt    "P 1"
_space_group_IT_number       1

loop_
  _space_group_symop_operation_xyz
  'x, y, z'

loop_
  _atom_site_type_symbol
  _atom_site_label
  _atom_site_symmetry_multiplicity
  _atom_site_fract_x
  _atom_site_fract_y
  _atom_site_fract_z
  _atom_site_occupancy
  N   N1        1.0  0.906391550353772  0.4082082155314269  0.40990131829842236  1.0000
  C   C1        1.0  0.8343960708459603  0.35089644544469506  0.41239377649581654  1.0000
  C   C2        1.0  0.7446955644107282  0.27958078656689245  0.4154950986133632  1.0000
  C   C3        1.0  0.6571305559535467  0.34820193637331  0.4125111474947887  1.0000
  C   C4        1.0  0.5690922301538341  0.2809070318754432  0.4154373676160832  1.0000
  C   C5        1.0  0.47932453717207857  0.3516457065109073  0.4123611763031272  1.0000
  N   N2        1.0  0.4071629597778053  0.40851405352377546  0.40988796267543814  1.0000
  C   C6        1.0  0.5685531147843512  0.14471045719196507  0.42135978511696526  1.0000
  C   C7        1.0  0.6556730907326941  0.0759801001757192  0.4243483937185908  1.0000
  C   C8        1.0  0.7439075242163319  0.1426319072083313  0.4214501584369901  1.0000
  Br  Br1       1.0  0.8613227114247718  0.04349111636220338  0.4257613185796907  1.0000
  H   H1        1.0  0.6574932338404911  0.45374275318359025  0.4079215758276904  1.0000
  H   H2        1.0  0.5008651907850833  0.09171132242568891  0.42366414957441423  1.0000
  H   H3        1.0  0.6545471871826681  0.9706637004211979  0.4289278294029726  1.0000
  C   C9        1.0  0.15678570523151292  0.026887368405582594  0.410098816309693  1.0000
  C   C10       1.0  0.15363830916232168  0.03540767531221967  0.2584751928580422  1.0000
  C   C11       1.0  0.1520255826110899  0.9231563901717991  0.18079397662577956  1.0000
  C   C12       1.0  0.1536257081978034  0.8002313898482278  0.2578875221557779  1.0000
  C   C13       1.0  0.15677809308025026  0.7898249974638969  0.40970292730747637  1.0000
  C   C14       1.0  0.15833659619569393  0.9036203583682005  0.48481755814128236  1.0000
  C   C15       1.0  0.14862118417054382  0.9418038983686373  0.016802321496812933  1.0000
  C   C16       1.0  0.09186619223409552  0.8423446445525847  0.9365940056707832  1.0000
  C   C17       1.0  0.20194084146692948  0.8426796933169404  0.9320137780680704  1.0000
  H   H4        1.0  0.1580076730462956  0.3511426804559502  0.46852426153460747  1.0000
  H   H5        1.0  0.15242344354451065  0.1301193493229238  0.1999401088863051  1.0000
  H   H6        1.0  0.15244223492461573  0.7121288564713231  0.20097794620266396  1.0000
  H   H7        1.0  0.16076439404070642  0.8963193195081302  0.601798367634554  1.0000
  H   H8        1.0  0.16271922463804178  0.5629537946799974  0.6964394802235006  1.0000
  H   H9        1.0  0.14752783778560552  0.0420537437750992  0.9640925206329767  1.0000
  H   H10       1.0  0.05976508704460448  0.7592660686490942  0.002167348072350749  1.0000
  H   H11       1.0  0.05755418600497797  0.8822972198624451  0.8346504345554622  1.0000
  H   H12       1.0  0.23670417629540122  0.7598054478968173  0.9948056303504096  1.0000
  H   H13       1.0  0.23196262064440432  0.8828257108257047  0.8273919360356059  1.0000
  C   C18       1.0  0.15585958937110012  0.4046224511866891  0.986776096101191  1.0000
  C   C19       1.0  0.06999209827736208  0.4358428608930116  0.05737299105174709  1.0000
  C   C20       1.0  0.9884183824237449  0.477766337926682  0.978652392087718  1.0000
  C   C21       1.0  0.9911799546351049  0.4893186082853036  0.8281504817344612  1.0000
  C   C22       1.0  0.07515310543710417  0.4566937603131296  0.7558273029281439  1.0000
  C   C23       1.0  0.15770422427456787  0.41208995384578406  0.8330256958181641  1.0000
  Br  Br2       1.0  0.8795314867329677  0.547742173050672  0.720872875109928  1.0000
  H   H14       1.0  0.28879070549995745  0.2867127096924904  0.27766797026099743  1.0000
  H   H15       1.0  0.9232733942983209  0.5024941930199489  0.03495866108315005  1.0000
  H   H16       1.0  0.07500096119310773  0.4633293340136153  0.6387734008121155  1.0000
  H   H17       1.0  0.3166948251753241  0.39877308181208654  0.5536336947774472  1.0000
  Zn  Zn1       1.0  0.05090338299364405  0.4082930643507559  0.40990579318239395  1.0000
  Zn  Zn2       1.0  0.26265114516046006  0.40841866155246437  0.409895318148471  1.0000
  C   C24       1.0  0.15735341736667308  0.4055032982587555  0.6730690708268958  1.0000
  C   C25       1.0  0.15620342335828477  0.4112100693341869  0.14673218096181428  1.0000
  C   C26       1.0  0.15676202902852499  0.6455628726271261  0.4040359844435797  1.0000
  C   C27       1.0  0.1567947396247742  0.17114893486910684  0.4157653449780394  1.0000
  O   O1        1.0  0.23667598945158505  0.41346293034690823  0.20041093197768411  1.0000
  O   O2        1.0  0.2375925023539751  0.4033447789639686  0.6193819552329007  1.0000
  O   O3        1.0  0.23711386880443275  0.5971959338122642  0.40213583387739993  1.0000
  O   O4        1.0  0.23715455051037604  0.2196117837952012  0.41765694529577013  1.0000
  O   O5        1.0  0.07639990538459228  0.5970999420665066  0.4021441660310894  1.0000
  O   O6        1.0  0.07687853874665686  0.40325034727340703  0.6193902097496766  1.0000
  O   O7        1.0  0.07596202213289915  0.41336843810133383  0.20041745416034384  1.0000
  O   O8        1.0  0.07644058342330595  0.21951728321152597  0.41766357551183964  1.0000
