data_image0
_chemical_formula_structural       NC9NC3OH6C6FH5C6NH7Zn2C4O8
_chemical_formula_sum              "N3 C28 O9 H18 F1 Zn2"
_cell_length_a       15.78231758774541
_cell_length_b       9.275642734913905
_cell_length_c       9.274774538082514
_cell_angle_alpha    84.97740811334555
_cell_angle_beta     90.43038941912484
_cell_angle_gamma    90.23470761467162

_space_group_name_H-M_alt    "P 1"
_space_group_IT_number       1

loop_
  _space_group_symop_operation_xyz
  'x, y, z'

loop_
  _atom_site_type_symbol
  _atom_site_label
  _atom_site_symmetry_multiplicity
  _atom_site_fract_x
  _atom_site_fract_y
  _atom_site_fract_z
  _atom_site_occupancy
  N   N1        1.0  0.8019433107579577  0.5833704016845245  0.4084636883069255  1.0000
  C   C1        1.0  0.7529434818980978  0.49200276845988694  0.435354351404643  1.0000
  C   C2        1.0  0.69210851301247  0.37859332331302387  0.4687325900450112  1.0000
  C   C3        1.0  0.7110414104183016  0.23613355618569273  0.5105727863581484  1.0000
  C   C4        1.0  0.6339574871078403  0.1670912519124901  0.5309330341410654  1.0000
  C   C5        1.0  0.5727170506375264  0.2725273828467177  0.5000123762098377  1.0000
  C   C6        1.0  0.4795265521534233  0.2530329620007543  0.5058311156781847  1.0000
  C   C7        1.0  0.42639320476608905  0.37255963553745436  0.4705952697291694  1.0000
  C   C8        1.0  0.3381051455506911  0.35657460823162024  0.4753744544786565  1.0000
  C   C9        1.0  0.28429306768075097  0.47957905246859656  0.439104238823872  1.0000
  N   N2        1.0  0.24104096555980414  0.5784587684145468  0.4099462340506443  1.0000
  C   C10       1.0  0.3022682439724227  0.2208849889599678  0.5154441868884756  1.0000
  C   C11       1.0  0.3544719407909358  0.10160539112372247  0.5506120258798171  1.0000
  C   C12       1.0  0.442572091805213  0.11715129644745659  0.5459627195088328  1.0000
  O   O1        1.0  0.6098153167416235  0.39748385031693  0.4632590682894598  1.0000
  H   H1        1.0  0.7732555396862633  0.18809150613711093  0.524626290863486  1.0000
  H   H2        1.0  0.6246439303701474  0.053568636238403376  0.5642913084762997  1.0000
  H   H3        1.0  0.4535388877058744  0.4781502649548033  0.43940866572677306  1.0000
  H   H4        1.0  0.2340828562970602  0.20734652214200613  0.5194895491304141  1.0000
  H   H5        1.0  0.32659963700158773  0.9967366299320884  0.5815858928257409  1.0000
  H   H6        1.0  0.4811750201647233  0.022673374728825232  0.573827292974206  1.0000
  C   C13       1.0  0.018878289838144532  0.1573944638397333  0.4098167038226127  1.0000
  C   C14       1.0  0.002017642751833689  0.24203077251383553  0.2793772193336117  1.0000
  C   C15       1.0  0.9931508471343459  0.17798391162861305  0.14940994079420292  1.0000
  C   C16       1.0  0.001073209612950207  0.028620645313250242  0.147585477973472  1.0000
  C   C17       1.0  0.016395373171466773  0.9424296304966797  0.2760008150762179  1.0000
  C   C18       1.0  0.024114065331081833  0.004423424744642635  0.4086057045287841  1.0000
  F   F1        1.0  0.9778375712984168  0.26134127254043027  0.024518876218111  1.0000
  H   H7        1.0  0.1075710560660747  0.23274222474732428  0.7324903020430011  1.0000
  H   H8        1.0  0.9976850138339063  0.35872069224628  0.2775154893454119  1.0000
  H   H9        1.0  0.9945301553486393  0.9791110607997279  0.04662531303447137  1.0000
  H   H10       1.0  0.020207635477661686  0.8262615878076286  0.27204711958313954  1.0000
  H   H11       1.0  0.08044984975073415  0.7044639009915628  0.627673928762934  1.0000
  C   C19       1.0  0.019998408552249526  0.584614670793892  0.9853844916031633  1.0000
  C   C20       1.0  0.0805608131657682  0.6690518098631615  0.05220202121646355  1.0000
  C   C21       1.0  0.14485091683332932  0.7415661906054868  0.9715479432056311  1.0000
  C   C22       1.0  0.14909769527313121  0.7299697664094982  0.8226016174600255  1.0000
  C   C23       1.0  0.08882676070919898  0.6487066733326488  0.7540779008377108  1.0000
  C   C24       1.0  0.022993919492089177  0.5772031839075705  0.8330379330551954  1.0000
  N   N3        1.0  0.20638475957850688  0.8257918040607741  0.041374288852322985  1.0000
  H   H12       1.0  0.8916087238032951  0.304100804068272  0.1112802824785888  1.0000
  H   H13       1.0  0.07907795655317666  0.6759089693070601  0.16820722211332595  1.0000
  H   H14       1.0  0.1987294416903922  0.7851404176280986  0.7591575892602398  1.0000
  H   H15       1.0  0.09258013005615012  0.6446526815647056  0.637923342924616  1.0000
  H   H16       1.0  0.9339439501924057  0.3926869007845179  0.5669245716076177  1.0000
  H   H17       1.0  0.20398026761142618  0.8348634942506613  0.15272297447118977  1.0000
  H   H18       1.0  0.25478656904530594  0.8798419917323368  0.982216437829175  1.0000
  Zn  Zn1       1.0  0.9286574108737026  0.5819490852183564  0.40889985220575864  1.0000
  Zn  Zn2       1.0  0.11432680588493577  0.5798682107374287  0.4095218852146487  1.0000
  C   C25       1.0  0.022390303897963804  0.5728586621710225  0.6728214919091047  1.0000
  C   C26       1.0  0.020595952113624083  0.5889604295524506  0.14560039135954608  1.0000
  C   C27       1.0  0.023099690958829668  0.8443672599249824  0.40308328622313  1.0000
  C   C28       1.0  0.019886491257974346  0.3174500990794658  0.4153386762575193  1.0000
  O   O2        1.0  0.09125702208146547  0.5896229329177594  0.19960637818870566  1.0000
  O   O3        1.0  0.09264800045275406  0.5706157388483409  0.6192871998300112  1.0000
  O   O4        1.0  0.09321989493705372  0.7898623627532902  0.40147168496984986  1.0000
  O   O5        1.0  0.09068506392212922  0.3703763209860832  0.4174217846064677  1.0000
  O   O6        1.0  0.9522990894766394  0.7914409756814391  0.4009999525940764  1.0000
  O   O7        1.0  0.9517272054272546  0.5721960852072514  0.6188153880223761  1.0000
  O   O8        1.0  0.9503362206695295  0.5912032441900972  0.1991328312216627  1.0000
  O   O9        1.0  0.9497642628253605  0.371956620996885  0.4169483458619614  1.0000
