data_image0
_chemical_formula_structural       NC9NC3OH6C7F3H5C9H10Zn2C4O8
_chemical_formula_sum              "N2 C32 O9 H21 F3 Zn2"
_cell_length_a       15.78231758774541
_cell_length_b       9.272718291674593
_cell_length_c       9.272679976505533
_cell_angle_alpha    86.45423910102922
_cell_angle_beta     90.48255963298988
_cell_angle_gamma    89.20559360488726

_space_group_name_H-M_alt    "P 1"
_space_group_IT_number       1

loop_
  _space_group_symop_operation_xyz
  'x, y, z'

loop_
  _atom_site_type_symbol
  _atom_site_label
  _atom_site_symmetry_multiplicity
  _atom_site_fract_x
  _atom_site_fract_y
  _atom_site_fract_z
  _atom_site_occupancy
  N   N1        1.0  0.7846802681529806  0.5564404924012596  0.4241336544464589  1.0000
  C   C1        1.0  0.7366510695575634  0.4655402303102847  0.45018133365144597  1.0000
  C   C2        1.0  0.6770208889519207  0.3527109128600643  0.4825132239775527  1.0000
  C   C3        1.0  0.6974671517946949  0.2109784029999584  0.523039128313761  1.0000
  C   C4        1.0  0.6211167047901622  0.1422899423295123  0.5427623341473775  1.0000
  C   C5        1.0  0.5587562269379195  0.24718858724933915  0.5128143558494807  1.0000
  C   C6        1.0  0.4657728564367926  0.22779524572550014  0.518453157574158  1.0000
  C   C7        1.0  0.41136971282520096  0.3467095427647702  0.48432015320139993  1.0000
  C   C8        1.0  0.3232514974487293  0.33080753123137474  0.4889517851883016  1.0000
  C   C9        1.0  0.2681326735309589  0.45318162821852415  0.4538165082164081  1.0000
  N   N2        1.0  0.22383011548691178  0.55155460235992  0.42557084917845245  1.0000
  C   C10       1.0  0.2888561269421058  0.19581425344866485  0.5277694795283131  1.0000
  C   C11       1.0  0.3423269970647672  0.07714584705789007  0.5618367520924874  1.0000
  C   C12       1.0  0.43026196943743067  0.09261099353501058  0.5573309464164915  1.0000
  O   O1        1.0  0.5945270458963202  0.3715062516967582  0.4772139103365201  1.0000
  H   H1        1.0  0.7601916147780416  0.16318066465320236  0.5366494641242319  1.0000
  H   H2        1.0  0.6130091176460387  0.029347141994099372  0.5750732662583398  1.0000
  H   H3        1.0  0.43739362644249336  0.4517582072352367  0.45410786218042976  1.0000
  H   H4        1.0  0.2208145870283438  0.1823460572070057  0.5316898746570531  1.0000
  H   H5        1.0  0.31556879382891306  0.9728153535361596  0.5918429664854323  1.0000
  H   H6        1.0  0.469868592738012  0.9986173318884269  0.5843237844031561  1.0000
  C   C13       1.0  0.006091798188243572  0.1305686896731717  0.4216734383797456  1.0000
  C   C14       1.0  0.9540386102277949  0.21165480894171584  0.32186712856454847  1.0000
  C   C15       1.0  0.8960354432736094  0.14405479641332564  0.2334171336121076  1.0000
  C   C16       1.0  0.8923193358790177  0.9928756225407098  0.24183389257548796  1.0000
  C   C17       1.0  0.9444233168026394  0.9108046468383664  0.3385205955204145  1.0000
  C   C18       1.0  0.0024267538917623873  0.9774153330632002  0.42804350382441  1.0000
  C   C19       1.0  0.8424040542941776  0.23268163875996084  0.12443351276654169  1.0000
  F   F1        1.0  0.8208412650222113  0.36476444885039405  0.17676031199528142  1.0000
  F   F2        1.0  0.7683149711472014  0.16186194583822755  0.09406937347431654  1.0000
  F   F3        1.0  0.8876074009111696  0.25593971487486566  0.9982913020333726  1.0000
  H   H7        1.0  0.10795649155327441  0.21064439345677075  0.7331525772404681  1.0000
  H   H8        1.0  0.9573939498625792  0.32853205041649947  0.31516784555787325  1.0000
  H   H9        1.0  0.8496857273931643  0.9376967571570124  0.17236434694430147  1.0000
  H   H10       1.0  0.9409726628135524  0.7940896331739256  0.34044908258853246  1.0000
  H   H11       1.0  0.1850320419547115  0.8608730807236912  0.602166889649786  1.0000
  C   C20       1.0  0.002556016659013726  0.5506062562306073  0.0014645423418178092  1.0000
  C   C21       1.0  0.06052692001027665  0.4607729094273485  0.08124830254535609  1.0000
  C   C22       1.0  0.12262006480223062  0.38257769107260065  0.012266378920513967  1.0000
  C   C23       1.0  0.12884169966039116  0.3916436060678745  0.8614933369875202  1.0000
  C   C24       1.0  0.06986216653231575  0.47953132254293734  0.7803072512501146  1.0000
  C   C25       1.0  0.005962537747136615  0.5573777945162481  0.8482524053854847  1.0000
  C   C26       1.0  0.19887712681767422  0.30400903644202915  0.7949196991396651  1.0000
  C   C27       1.0  0.17898612081117338  0.238245456155757  0.6522574327936241  1.0000
  C   C28       1.0  0.238027442112408  0.3666914124326217  0.6556051787625434  1.0000
  H   H12       1.0  0.8745485514236171  0.6495163427997099  0.2747312257260437  1.0000
  H   H13       1.0  0.05921697081848776  0.45351445612108154  0.19826380363634494  1.0000
  H   H14       1.0  0.1667744974302362  0.31545349154411384  0.07754109610574256  1.0000
  H   H15       1.0  0.0717306279298619  0.48574364152880456  0.663581438862832  1.0000
  H   H16       1.0  0.8130011276808505  0.6951672255123653  0.7339404788712747  1.0000
  H   H17       1.0  0.24344473112773132  0.2386517533149555  0.8667629901008795  1.0000
  H   H18       1.0  0.11593935236257336  0.2635518268488084  0.6025549398072929  1.0000
  H   H19       1.0  0.21234814358754373  0.13407415520868526  0.637290315452772  1.0000
  H   H20       1.0  0.21088605914172198  0.46995516407454696  0.6078191983076757  1.0000
  H   H21       1.0  0.3059064707538841  0.3375815897092902  0.6425908046212553  1.0000
  Zn  Zn1       1.0  0.9114094744258799  0.5550267450435729  0.4245566880393057  1.0000
  Zn  Zn2       1.0  0.09710097906804971  0.5529566755163626  0.42515951324838364  1.0000
  C   C29       1.0  0.005341610901323341  0.5503535652120461  0.688148110212728  1.0000
  C   C30       1.0  0.0031708630335225423  0.5576316532121004  0.16156825285556553  1.0000
  C   C31       1.0  0.003092062105763293  0.8172974000690771  0.42109392372276044  1.0000
  C   C32       1.0  0.005420356272288098  0.2906860872927981  0.42862250297715354  1.0000
  O   O2        1.0  0.07384619659058955  0.5591975694217366  0.21552924237646764  1.0000
  O   O3        1.0  0.07560183579677626  0.547215423037487  0.6346442278527717  1.0000
  O   O4        1.0  0.07378435277072937  0.762775968228657  0.41899609100315405  1.0000
  O   O5        1.0  0.07566361577317  0.34363703438726834  0.4311772709930899  1.0000
  O   O6        1.0  0.9328467743533251  0.7643463868805893  0.41853893008131315  1.0000
  O   O7        1.0  0.9346642495687318  0.5487875734596135  0.6341870030860238  1.0000
  O   O8        1.0  0.932908603662851  0.5607696557341622  0.21507028377252957  1.0000
  O   O9        1.0  0.9347260233214634  0.34520911125091436  0.43071842040886077  1.0000
