data_image0
_chemical_formula_structural       NC5NC3OH4C9H10C7NH4Zn2C4O8
_chemical_formula_sum              "N3 C28 O9 H18 Zn2"
_cell_length_a       13.84702359539666
_cell_length_b       10.297183801781406
_cell_length_c       9.275157849593905
_cell_angle_alpha    86.08426286032497
_cell_angle_beta     89.7265770318806
_cell_angle_gamma    89.99848952151973

_space_group_name_H-M_alt    "P 1"
_space_group_IT_number       1

loop_
  _space_group_symop_operation_xyz
  'x, y, z'

loop_
  _atom_site_type_symbol
  _atom_site_label
  _atom_site_symmetry_multiplicity
  _atom_site_fract_x
  _atom_site_fract_y
  _atom_site_fract_z
  _atom_site_occupancy
  N   N1        1.0  0.9141524341143832  0.4079244439535283  0.40931470123995917  1.0000
  C   C1        1.0  0.841817508864095  0.40066213174874404  0.4723635845268557  1.0000
  C   C2        1.0  0.751733441069809  0.39161901889430134  0.5508727288150836  1.0000
  C   C3        1.0  0.6643788688643504  0.40035523386664873  0.4750272598568681  1.0000
  C   C4        1.0  0.5762905645618964  0.3917205196143297  0.5499911119010079  1.0000
  C   C5        1.0  0.4866758765876355  0.40071513833666694  0.47190309012730136  1.0000
  N   N2        1.0  0.414637278033096  0.4079461232200212  0.40912654600517784  1.0000
  C   C6        1.0  0.5755507980806908  0.374323524371029  0.7010257692228181  1.0000
  C   C7        1.0  0.66252493580264  0.3655791426436179  0.7769392574417096  1.0000
  C   C8        1.0  0.7509272024888739  0.3741582228539154  0.702460001356989  1.0000
  O   O1        1.0  0.8376213108642946  0.36539892868894475  0.778504869502989  1.0000
  H   H1        1.0  0.6649565565088853  0.41383303514266334  0.3580186033617019  1.0000
  H   H2        1.0  0.5078174932163337  0.3675275417888591  0.7600257705449951  1.0000
  H   H3        1.0  0.6611695946811385  0.3521280803238896  0.8937165447680677  1.0000
  H   H4        1.0  0.8388225854011927  0.35280997827921373  0.887796706059764  1.0000
  C   C9        1.0  0.16440223024549683  0.026461491908781117  0.40942479836902557  1.0000
  C   C10       1.0  0.16204614722603597  0.03500556631590746  0.2577765170064192  1.0000
  C   C11       1.0  0.16083883361853135  0.9227664580878419  0.18008266788334756  1.0000
  C   C12       1.0  0.16203661350385334  0.7998293731993958  0.2571887508741615  1.0000
  C   C13       1.0  0.164396683864442  0.7893991826803183  0.4090288447735481  1.0000
  C   C14       1.0  0.16556316940695281  0.9031827695299344  0.4841556914356582  1.0000
  C   C15       1.0  0.1582902962700774  0.941439672666414  0.016064343575906692  1.0000
  C   C16       1.0  0.10198544048410652  0.8420242504324376  0.9358622205429036  1.0000
  C   C17       1.0  0.2120209303622487  0.8422975056973689  0.931242778219945  1.0000
  H   H5        1.0  0.16531927450995765  0.35070764037281865  0.46785974187404933  1.0000
  H   H6        1.0  0.16113677198728538  0.1297264157779581  0.19923191364978332  1.0000
  H   H7        1.0  0.16115014854256884  0.7117357618034651  0.20026992070621352  1.0000
  H   H8        1.0  0.1673804528942553  0.89586339381894  0.6011555251941492  1.0000
  H   H9        1.0  0.16884136373385483  0.5624830392040394  0.6958120322643364  1.0000
  H   H10       1.0  0.1574720381780157  0.04169778005251111  0.9633459704595043  1.0000
  H   H11       1.0  0.06956126706288823  0.7589543825396068  0.0014579114581920773  1.0000
  H   H12       1.0  0.06822390012292989  0.8820110740060012  0.8339133131583827  1.0000
  H   H13       1.0  0.24643740583625443  0.7593944319453504  0.994033158306499  1.0000
  H   H14       1.0  0.24257029541234457  0.8824416560832172  0.8265926804152337  1.0000
  C   C18       1.0  0.16568090605423214  0.40425847138895926  0.9860304899409497  1.0000
  C   C19       1.0  0.24891832422456073  0.4466107198161504  0.05567324627320768  1.0000
  C   C20       1.0  0.3272017588028528  0.49917758274936497  0.9757383670764405  1.0000
  C   C21       1.0  0.32316038381315715  0.5102278873502291  0.825075204971411  1.0000
  C   C22       1.0  0.24190845661012816  0.4668238001957212  0.7540907060909752  1.0000
  C   C23       1.0  0.163118017822923  0.41160216600371236  0.8324232131395157  1.0000
  C   C24       1.0  0.4113856868172623  0.5433389606494445  0.048687420815119335  1.0000
  N   N3        1.0  0.47904800942614356  0.5788328007758985  0.10732615883503072  1.0000
  H   H15       1.0  0.9307093170419026  0.3604485053730908  0.0939791830245551  1.0000
  H   H16       1.0  0.383295859264398  0.5513211800906952  0.7622084722881146  1.0000
  H   H17       1.0  0.24169476546416796  0.4736534444709284  0.6370228024414977  1.0000
  H   H18       1.0  0.005925044785071387  0.3766513228398114  0.555093953172029  1.0000
  Zn  Zn1       1.0  0.05858152213843405  0.4079272945848096  0.4092687152029406  1.0000
  Zn  Zn2       1.0  0.27020813041260516  0.40793274538968194  0.40918429878293927  1.0000
  C   C25       1.0  0.16360031878590386  0.4050389755235755  0.6724395265093686  1.0000
  C   C26       1.0  0.16519164428085809  0.4108227048080982  0.14601362715069666  1.0000
  C   C27       1.0  0.16441013704917107  0.6451378885234995  0.40336094485164103  1.0000
  C   C28       1.0  0.16438175358295015  0.17072223174110454  0.4150922864796871  1.0000
  O   O2        1.0  0.24533863854028784  0.41302212276045025  0.19967339681186955  1.0000
  O   O3        1.0  0.24407302476350412  0.4028427110145232  0.618715272398862  1.0000
  O   O4        1.0  0.24472587608183516  0.5967256327008847  0.4014324136655456  1.0000
  O   O5        1.0  0.2446857153352564  0.2191392094274727  0.4169561475147314  1.0000
  O   O6        1.0  0.08410386499803013  0.5967208305465079  0.4014968664923746  1.0000
  O   O7        1.0  0.08345101389658784  0.40283946892670386  0.6187796475756537  1.0000
  O   O8        1.0  0.08471663298447463  0.41301882037087023  0.19973603936156303  1.0000
  O   O9        1.0  0.0840637094483914  0.21913589868399708  0.41701889811610576  1.0000
