data_image0
_chemical_formula_structural       NC9NC3OH6C6SCNH4C7F3H5Zn2C4O8
_chemical_formula_sum              "N3 C30 O9 H15 S1 F3 Zn2"
_cell_length_a       15.78231758774541
_cell_length_b       10.302215558581764
_cell_length_c       9.272721663655245
_cell_angle_alpha    85.88255001393937
_cell_angle_beta     90.60221336655935
_cell_angle_gamma    89.65080806534476

_space_group_name_H-M_alt    "P 1"
_space_group_IT_number       1

loop_
  _space_group_symop_operation_xyz
  'x, y, z'

loop_
  _atom_site_type_symbol
  _atom_site_label
  _atom_site_symmetry_multiplicity
  _atom_site_fract_x
  _atom_site_fract_y
  _atom_site_fract_z
  _atom_site_occupancy
  N   N1        1.0  0.7897623892239474  0.40509843150825464  0.4122876966840825  1.0000
  C   C1        1.0  0.7413547404223406  0.32318740091568343  0.43901439995390223  1.0000
  C   C2        1.0  0.6812548116154762  0.22151590358869264  0.47218912424863935  1.0000
  C   C3        1.0  0.7011108827599396  0.09379968504314973  0.5137737519807741  1.0000
  C   C4        1.0  0.6244745111452917  0.031903813230428124  0.5340100677785158  1.0000
  C   C5        1.0  0.5625509010531707  0.12642865745413534  0.5032785191782756  1.0000
  C   C6        1.0  0.4694868901070109  0.10895295974591224  0.5090622048152602  1.0000
  C   C7        1.0  0.41557875755911594  0.21610781701566983  0.47404090058240067  1.0000
  C   C8        1.0  0.3273944290738697  0.20177820298271196  0.47879133497598203  1.0000
  C   C9        1.0  0.2727850071657746  0.31205074136183375  0.4427419113641027  1.0000
  N   N2        1.0  0.22889194079555458  0.4006956280927483  0.41376139617578456  1.0000
  C   C10       1.0  0.2924372005126675  0.08013425780738871  0.5186174539967118  1.0000
  C   C11       1.0  0.3454140891525749  0.9732009639953525  0.5535711905383378  1.0000
  C   C12       1.0  0.4334133566028306  0.9871369135971375  0.548949845957912  1.0000
  O   O1        1.0  0.5988393273197481  0.23845235244357113  0.46674942641165157  1.0000
  H   H1        1.0  0.7636362400452575  0.05072891660808887  0.5277411196883408  1.0000
  H   H2        1.0  0.6158966371672057  0.9301301774006968  0.5671646711916186  1.0000
  H   H3        1.0  0.44203988969372104  0.31076834981094076  0.4430438756445403  1.0000
  H   H4        1.0  0.22433966323081503  0.06799780778533893  0.5226384682723779  1.0000
  H   H5        1.0  0.3182216570509217  0.8791875820429017  0.5843567740632796  1.0000
  H   H6        1.0  0.47262872344385215  0.9024382593652573  0.576644827077653  1.0000
  C   C13       1.0  0.009246835177684647  0.021625433607832308  0.41298456821556706  1.0000
  C   C14       1.0  0.09440804090065708  0.0169275441556378  0.4586432997784153  1.0000
  C   C15       1.0  0.13679033302671872  0.8975512266909299  0.48182104476825977  1.0000
  C   C16       1.0  0.09462892839946496  0.7817507332152618  0.45876613655447146  1.0000
  C   C17       1.0  0.009415615173838258  0.78415860443085  0.41307696382945375  1.0000
  C   C18       1.0  0.9671833031858823  0.9046109859301236  0.3904928798647258  1.0000
  S   S1        1.0  0.24558916273361042  0.893069470102074  0.5395127252437176  1.0000
  C   C19       1.0  0.21861270721763626  0.881433841706053  0.7241998278550119  1.0000
  N   N3        1.0  0.2009014671956334  0.8738063441444984  0.8452779345361573  1.0000
  H   H7        1.0  0.12814476912483652  0.10565234589873107  0.4766489522202461  1.0000
  H   H8        1.0  0.1285170661702224  0.6901926840944637  0.4768560612733565  1.0000
  H   H9        1.0  0.9015036139366353  0.9073846260181321  0.35529926850491345  1.0000
  H   H10       1.0  0.8488241421755078  0.5814889014351539  0.3268098867302991  1.0000
  C   C20       1.0  0.0070888429649520425  0.4008086614218182  0.9895797807254455  1.0000
  C   C21       1.0  0.04312817913602651  0.2942491164048895  0.07241026927056882  1.0000
  C   C22       1.0  0.08659589877700363  0.19533800546195734  0.00663927398728625  1.0000
  C   C23       1.0  0.09142776711616785  0.20126836237354787  0.8555063908072496  1.0000
  C   C24       1.0  0.054885653925748706  0.30512974432009377  0.7717055873370824  1.0000
  C   C25       1.0  0.011573655160518335  0.40497542535277486  0.8364817668074869  1.0000
  C   C26       1.0  0.12283380508118076  0.08018978888081318  0.09709441126329343  1.0000
  F   F1        1.0  0.1513779005188145  0.11763877937858469  0.22942769880858171  1.0000
  F   F2        1.0  0.19036440727866877  0.025808954832770455  0.028194652426883904  1.0000
  F   F3        1.0  0.06060466959014408  0.9873577318512567  0.11991002407082685  1.0000
  H   H11       1.0  0.9534465727405367  0.7105222405575833  0.06565640267686822  1.0000
  H   H12       1.0  0.03889623746647164  0.28967887401225667  0.18924114502373057  1.0000
  H   H13       1.0  0.12272966459311814  0.12468447201868792  0.8016943884813432  1.0000
  H   H14       1.0  0.0585166766470584  0.30550859164945665  0.6550632053212531  1.0000
  H   H15       1.0  0.85956402422383  0.6254876950291852  0.7147071703214425  1.0000
  Zn  Zn1       1.0  0.9164857317347872  0.40382445039270726  0.41272129443516103  1.0000
  Zn  Zn2       1.0  0.10216862986867076  0.4019590704385022  0.41333958491526457  1.0000
  C   C27       1.0  0.010722876938936482  0.3990154624924622  0.6763985413479059  1.0000
  C   C28       1.0  0.007933513428142414  0.40676967686660004  0.14966248648452884  1.0000
  C   C29       1.0  0.009348944112818728  0.6399953995521952  0.4073132897636478  1.0000
  C   C30       1.0  0.009307382955450196  0.1657881809172399  0.4187478145474728  1.0000
  O   O2        1.0  0.07868268344505153  0.4080566818377764  0.20362234223918696  1.0000
  O   O3        1.0  0.08090272778084628  0.3963116957832442  0.6229075385446348  1.0000
  O   O4        1.0  0.07979231767682003  0.5909060594860579  0.4056192910681161  1.0000
  O   O5        1.0  0.07979302961758905  0.21346232752739563  0.42091048138639153  1.0000
  O   O6        1.0  0.9388612686213686  0.592321193941752  0.40515039774545736  1.0000
  O   O7        1.0  0.9399716786597045  0.39772838976650393  0.6224385685247131  1.0000
  O   O8        1.0  0.9377516251894297  0.40947332204631137  0.20315163852078366  1.0000
  O   O9        1.0  0.938861971928956  0.21487895898143658  0.42043988577872593  1.0000
