data_image0
_chemical_formula_structural       NC9NC3OH6C7OC4NC3H7C7OC4NC3H9Zn2C4O8
_chemical_formula_sum              "N4 C44 O11 H22 Zn2"
_cell_length_a       15.78231758774541
_cell_length_b       10.299371701877257
_cell_length_c       10.299375074045738
_cell_angle_alpha    85.55924318392921
_cell_angle_beta     90.07708282106614
_cell_angle_gamma    89.64160960478581

_space_group_name_H-M_alt    "P 1"
_space_group_IT_number       1

loop_
  _space_group_symop_operation_xyz
  'x, y, z'

loop_
  _atom_site_type_symbol
  _atom_site_label
  _atom_site_symmetry_multiplicity
  _atom_site_fract_x
  _atom_site_fract_y
  _atom_site_fract_z
  _atom_site_occupancy
  N   N1        1.0  0.7981305489280529  0.41380796484152094  0.5703440514158632  1.0000
  C   C1        1.0  0.7495881238203168  0.33173525844235363  0.5943961948701406  1.0000
  C   C2        1.0  0.689320902770639  0.22986308009600975  0.6242511016787172  1.0000
  C   C3        1.0  0.708967300817407  0.1018952372371138  0.6616742624161902  1.0000
  C   C4        1.0  0.6322288694285606  0.03987698339748902  0.6798855455468709  1.0000
  C   C5        1.0  0.570460195584424  0.13458781752504612  0.6522294056601634  1.0000
  C   C6        1.0  0.47736699278769595  0.11707719763490342  0.6574343735781991  1.0000
  C   C7        1.0  0.42363548273055324  0.22444386079733025  0.6259176333164851  1.0000
  C   C8        1.0  0.33542717498274083  0.2100855696270012  0.630192743242662  1.0000
  C   C9        1.0  0.2809995635993275  0.3205761246222054  0.5977507602750876  1.0000
  N   N2        1.0  0.2372526571020514  0.40939627609778045  0.5716703039551643  1.0000
  C   C10       1.0  0.3002690696896593  0.08820081432141458  0.6660335336590658  1.0000
  C   C11       1.0  0.3530696750525205  0.981056127094107  0.6974894712371575  1.0000
  C   C12       1.0  0.4410922705912015  0.9950199734482955  0.6933305334863054  1.0000
  O   O1        1.0  0.6069328218539911  0.2468325034379086  0.6193558215413588  1.0000
  H   H1        1.0  0.7714222516434196  0.05873990878419222  0.674243842792023  1.0000
  H   H2        1.0  0.6234838217923093  0.9379027459084118  0.7097223058364275  1.0000
  H   H3        1.0  0.45025296069999915  0.31929181412540886  0.5980224214729767  1.0000
  H   H4        1.0  0.23215123585938643  0.07604008864033651  0.6696522069286126  1.0000
  H   H5        1.0  0.3257219634546051  0.8868566034410342  0.7251944005500026  1.0000
  H   H6        1.0  0.48016795953073155  0.9101538326031389  0.718254101550887  1.0000
  C   C13       1.0  0.017651335964968595  0.030232147077485786  0.5708800496899831  1.0000
  C   C14       1.0  0.021778644227527833  0.03958367405149166  0.4342241384318142  1.0000
  C   C15       1.0  0.02289823790116663  0.9271411024058569  0.36523337902260944  1.0000
  C   C16       1.0  0.021789101411601175  0.8043151322389881  0.43454157397698334  1.0000
  C   C17       1.0  0.01773995510075087  0.7929620136297726  0.5711455361485471  1.0000
  C   C18       1.0  0.015471571718622897  0.906524435743354  0.6385078803060015  1.0000
  C   C19       1.0  0.02814625596137274  0.9368629495679615  0.22099556558389089  1.0000
  O   O2        1.0  0.06893143334739865  0.8507273239737129  0.16617147610349225  1.0000
  C   C20       1.0  0.9871117675194957  0.044219710701126624  0.13895736110834056  1.0000
  C   C21       1.0  0.02341000836197904  0.08854506341201908  0.01909366014357072  1.0000
  C   C22       1.0  0.9846099729100449  0.18886812594254396  0.9401836874003335  1.0000
  C   C23       1.0  0.022552173498254332  0.2343618470528919  0.8181387466613845  1.0000
  N   N3        1.0  0.053056012474899085  0.27092917960128515  0.7200323239889488  1.0000
  C   C24       1.0  0.9088791798413022  0.24479207582391593  0.980127830553553  1.0000
  C   C25       1.0  0.8718658000360815  0.20026394413141335  0.09824977749448616  1.0000
  C   C26       1.0  0.9104225546821562  0.10024080452177508  0.1771476175796958  1.0000
  H   H7        1.0  0.02507646215608084  0.13449443688006046  0.38134612615425345  1.0000
  H   H8        1.0  0.02328020831909106  0.7174828377572803  0.38153246556521214  1.0000
  H   H9        1.0  0.012290182194851788  0.898511195349467  0.743859848859262  1.0000
  H   H10       1.0  0.08217303671822623  0.04587558606427145  0.9876934408686475  1.0000
  H   H11       1.0  0.878338638356464  0.32233809905625505  0.9197945675840377  1.0000
  H   H12       1.0  0.8129581801062085  0.24295149898798374  0.12849652450850813  1.0000
  H   H13       1.0  0.8798040226483052  0.06580415950816887  0.26721377486482134  1.0000
  C   C27       1.0  0.017724463291912906  0.4117391562067878  0.18962617078730082  1.0000
  C   C28       1.0  0.08295635648495847  0.5041948808178347  0.1814120574051281  1.0000
  C   C29       1.0  0.11519937927867757  0.551913829650537  0.06001004264626132  1.0000
  C   C30       1.0  0.08281914194659795  0.5039585233134263  0.9461862441139357  1.0000
  C   C31       1.0  0.017666797575784477  0.4114550507458134  0.9523994537003652  1.0000
  C   C32       1.0  0.98534456034461  0.36613345966166366  0.07459833661945847  1.0000
  C   C33       1.0  0.18468804976000308  0.648534723027375  0.05127620402117472  1.0000
  O   O3        1.0  0.23883463308475605  0.6433057091718886  0.9618031722192281  1.0000
  C   C34       1.0  0.19273821872012464  0.7510995091571795  0.1439627092065632  1.0000
  C   C35       1.0  0.27331855764506363  0.7968510470385417  0.17597882565345668  1.0000
  C   C36       1.0  0.28154063657953543  0.8947804144667829  0.26225447279541547  1.0000
  C   C37       1.0  0.36429052645938254  0.9403008272102656  0.2953081779021168  1.0000
  N   N4        1.0  0.4308121147557409  0.9768884936679161  0.321875869682235  1.0000
  C   C38       1.0  0.2091903570121264  0.9483584460569515  0.316247769044675  1.0000
  C   C39       1.0  0.12889252002907658  0.9046157234870871  0.28373225205754515  1.0000
  C   C40       1.0  0.12050195737080416  0.8069580337178746  0.19773174872343757  1.0000
  H   H14       1.0  0.8955151329399892  0.23579178323492897  0.41256423428782424  1.0000
  H   H15       1.0  0.10941338393304173  0.5381304446001409  0.26968710564626486  1.0000
  H   H16       1.0  0.10804417725305776  0.5399410151626751  0.8525298682941056  1.0000
  H   H17       1.0  0.9350558185592618  0.2948561794247033  0.08012699965697156  1.0000
  H   H18       1.0  0.9931267246196385  0.37511478736905435  0.6273925020251516  1.0000
  H   H19       1.0  0.3296434055973423  0.75556498907059  0.1347541151901788  1.0000
  H   H20       1.0  0.21485149132525871  0.024179688261971137  0.3829704446362623  1.0000
  H   H21       1.0  0.07298992533085785  0.9468762387648965  0.32480975945469975  1.0000
  H   H22       1.0  0.05756271519239517  0.776196765158232  0.172227428218239  1.0000
  Zn  Zn1       1.0  0.9248516991730464  0.41253137499029074  0.5707342718570815  1.0000
  Zn  Zn2       1.0  0.11053147633068988  0.41066226249549564  0.5712906966365836  1.0000
  C   C41       1.0  0.017675227367531562  0.4063350577121774  0.8082171357275278  1.0000
  C   C42       1.0  0.01770997593434641  0.4168601979394397  0.33380796688502  1.0000
  C   C43       1.0  0.017719231792986383  0.648791820624544  0.5659199319976631  1.0000
  C   C44       1.0  0.017665907962847824  0.17440187533232665  0.5761052391237501  1.0000
  O   O4        1.0  0.08816962093957126  0.417863882118833  0.3824078531042405  1.0000
  O   O5        1.0  0.08814223680179346  0.40391178081169626  0.7600391888367392  1.0000
  O   O6        1.0  0.08817682093454676  0.5996986922066141  0.5643824801554079  1.0000
  O   O7        1.0  0.08813497345532556  0.22207698068823722  0.5780644642197459  1.0000
  O   O8        1.0  0.9472481386850162  0.6011166574368021  0.5639605040772074  1.0000
  O   O9        1.0  0.9472135547349128  0.405331306375883  0.7596171440529627  1.0000
  O   O10       1.0  0.9472409390417776  0.41928336300801283  0.38198424683168747  1.0000
  O   O11       1.0  0.94720629154563  0.22349645225234835  0.5776409553163077  1.0000
