data_image0
_chemical_formula_structural       NC5OC5NC4H8C6NCH9C6NCH7Zn2C4O8
_chemical_formula_sum              "N4 C32 O9 H24 Zn2"
_cell_length_a       19.189071930511275
_cell_length_b       9.273386996610926
_cell_length_c       9.273390368590327
_cell_angle_alpha    86.07317832945773
_cell_angle_beta     89.96896470301299
_cell_angle_gamma    89.38971707573329

_space_group_name_H-M_alt    "P 1"
_space_group_IT_number       1

loop_
  _space_group_symop_operation_xyz
  'x, y, z'

loop_
  _atom_site_type_symbol
  _atom_site_label
  _atom_site_symmetry_multiplicity
  _atom_site_fract_x
  _atom_site_fract_y
  _atom_site_fract_z
  _atom_site_occupancy
  N   N1        1.0  0.6484164268610578  0.5617747410082465  0.407120077755037  1.0000
  C   C1        1.0  0.5937022894632666  0.6127897063487691  0.3867361394040636  1.0000
  C   C2        1.0  0.5256449678089995  0.6762438186171406  0.3613815846496795  1.0000
  C   C3        1.0  0.5154177802637201  0.7827163369015009  0.24865239897589816  1.0000
  C   C4        1.0  0.4493070195637561  0.8444365135766738  0.22416295996774524  1.0000
  C   C5        1.0  0.39276545174876537  0.7995531703833862  0.3108988097950698  1.0000
  O   O1        1.0  0.32746357660355774  0.8652808138407139  0.283889166940723  1.0000
  C   C6        1.0  0.2628255651010346  0.7993359482512736  0.3102729990940942  1.0000
  C   C7        1.0  0.20562145070664944  0.8858834902323506  0.343713562183225  1.0000
  C   C8        1.0  0.1401313807821466  0.8244904673966447  0.36914654566183924  1.0000
  C   C9        1.0  0.1311908139031011  0.6757344953179787  0.35991287592378396  1.0000
  C   C10       1.0  0.0637720325042741  0.6125090818605989  0.38592681808534646  1.0000
  N   N2        1.0  0.00957131158181151  0.561678051062183  0.4068413581795896  1.0000
  C   C11       1.0  0.18792370479265905  0.5888218835404915  0.3243449595628701  1.0000
  C   C12       1.0  0.2534046861702664  0.6502592343074864  0.298960330652438  1.0000
  C   C13       1.0  0.4034694844881212  0.6941024438363825  0.4254224267266795  1.0000
  C   C14       1.0  0.46957134626535973  0.6323784316667378  0.4499799905306496  1.0000
  H   H1        1.0  0.5584920892960354  0.8181028770228498  0.17990626918922148  1.0000
  H   H2        1.0  0.44186055903816174  0.9268677818769648  0.13694070093558985  1.0000
  H   H3        1.0  0.21207193164669824  0.0010184220195750332  0.3508226901770346  1.0000
  H   H4        1.0  0.0965334805973621  0.8929457601015403  0.39578494105223094  1.0000
  H   H5        1.0  0.18146607047564095  0.4738385092130495  0.3154877816937067  1.0000
  H   H6        1.0  0.2962928009932952  0.5819955131347285  0.26853300258724166  1.0000
  H   H7        1.0  0.3610915044163515  0.6611635702317475  0.496887176069738  1.0000
  H   H8        1.0  0.47701829193113254  0.5511240408401645  0.5384116623449084  1.0000
  C   C15       1.0  0.8311400930751781  0.13807938067627964  0.4076872921584809  1.0000
  C   C16       1.0  0.8433932612407274  0.22016652275978577  0.2773617047177688  1.0000
  C   C17       1.0  0.8490849299321732  0.15427684662141616  0.14703312578787275  1.0000
  C   C18       1.0  0.8426097066773062  0.003942411357696687  0.1436979810190706  1.0000
  C   C19       1.0  0.83158468117019  0.9208872144171206  0.27356993155280507  1.0000
  C   C20       1.0  0.8268543751342242  0.9853624608170334  0.40628663231027473  1.0000
  N   N3        1.0  0.8477126146010252  0.9329878679890934  0.010679184756101407  1.0000
  C   C21       1.0  0.8593400573028741  0.009386275166597853  0.8700242111350645  1.0000
  H   H9        1.0  0.8453466945172331  0.4027354503417204  0.6442992314479898  1.0000
  H   H10       1.0  0.8469479120214577  0.3367926696263417  0.2755907295211317  1.0000
  H   H11       1.0  0.8578859746901751  0.2218359953113138  0.04912639484977843  1.0000
  H   H12       1.0  0.8282956704672019  0.8044628573675398  0.27129879896134135  1.0000
  H   H13       1.0  0.8524672943079084  0.8577249796455053  0.7573060132791953  1.0000
  H   H14       1.0  0.8427853973699552  0.8206538319902081  0.013671684892192284  1.0000
  H   H15       1.0  0.8161419177780782  0.08770522048563124  0.8450158835007597  1.0000
  H   H16       1.0  0.9097801291991902  0.06692699680752323  0.8702178544089145  1.0000
  H   H17       1.0  0.8611079144588708  0.9310422622710255  0.7846983198599942  1.0000
  C   C22       1.0  0.829052296725459  0.5572221428551785  0.9837485882346639  1.0000
  C   C23       1.0  0.8930715909113248  0.5543385470047995  0.057306416891308665  1.0000
  C   C24       1.0  0.9559066623910264  0.5648662010433645  0.9818256625580436  1.0000
  C   C25       1.0  0.95631830872587  0.5786678538787176  0.8301744857902253  1.0000
  C   C26       1.0  0.8927360809679853  0.5791183782841873  0.7558107494077873  1.0000
  C   C27       1.0  0.8289422023659105  0.5662197430157334  0.8302252981312725  1.0000
  N   N4        1.0  0.02032281275469684  0.5908562715615537  0.7493165933290187  1.0000
  C   C28       1.0  0.0891275546604362  0.5910078898329776  0.8162514090826951  1.0000
  H   H18       1.0  0.7194090284943132  0.4879530197600361  0.2697880334163549  1.0000
  H   H19       1.0  0.003927930698437005  0.5635258588226025  0.042911806149917624  1.0000
  H   H20       1.0  0.6671036315154086  0.45418407991583565  0.7350448357236008  1.0000
  H   H21       1.0  0.01801333868153466  0.600417975019659  0.6364266988999727  1.0000
  H   H22       1.0  0.09318215513848485  0.6835512735456013  0.8855634620421826  1.0000
  H   H23       1.0  0.09814961892000643  0.4878822702843337  0.8819692673249876  1.0000
  H   H24       1.0  0.12991168724221058  0.6019032256729078  0.731311294616328  1.0000
  Zn  Zn1       1.0  0.7526379523813899  0.5617430781656232  0.4070479684619537  1.0000
  Zn  Zn2       1.0  0.9053498613795085  0.5616980815511718  0.4069252710456399  1.0000
  C   C29       1.0  0.8289905139720692  0.5587717548741319  0.6702325843324966  1.0000
  C   C30       1.0  0.8289989581724598  0.5646712261302693  0.14374079228669423  1.0000
  C   C31       1.0  0.8276616388491369  0.8251468895464522  0.4008080268099181  1.0000
  C   C32       1.0  0.8303277899427051  0.2982943590138991  0.4131654295566598  1.0000
  O   O2        1.0  0.8869344627021268  0.5671478367050466  0.1973890848880202  1.0000
  O   O3        1.0  0.8869598204178778  0.5562599001665292  0.6164907541408315  1.0000
  O   O4        1.0  0.8858859555160489  0.7713612063476374  0.3989285158657869  1.0000
  O   O5        1.0  0.8880082754555817  0.3520465397107475  0.4149512151227075  1.0000
  O   O6        1.0  0.7699794861922299  0.7713946200228927  0.3990220244191733  1.0000
  O   O7        1.0  0.7710533423336593  0.5562950463026792  0.6165841829811174  1.0000
  O   O8        1.0  0.7710279851439543  0.5671829141492539  0.1974807809888024  1.0000
  O   O9        1.0  0.7721017979326964  0.35208160798499066  0.41504301929813425  1.0000
