data_image0
_chemical_formula_structural       NC8SNC5NC2H9C7OC6H10C8NC6H15Zn2C4O8
_chemical_formula_sum              "N4 C46 S1 H34 O9 Zn2"
_cell_length_a       21.362259523660498
_cell_length_b       15.44810520344615
_cell_length_c       14.927698822507613
_cell_angle_alpha    85.54479576951046
_cell_angle_beta     89.35006700839963
_cell_angle_gamma    90.1122143204357

_space_group_name_H-M_alt    "P 1"
_space_group_IT_number       1

loop_
  _space_group_symop_operation_xyz
  'x, y, z'

loop_
  _atom_site_type_symbol
  _atom_site_label
  _atom_site_symmetry_multiplicity
  _atom_site_fract_x
  _atom_site_fract_y
  _atom_site_fract_z
  _atom_site_occupancy
  N   N1        1.0  0.5895285109542281  0.9502473211595139  0.0019350610054524916  1.0000
  C   C1        1.0  0.5362187288251798  0.9378725242635886  0.009564680349457797  1.0000
  C   C2        1.0  0.46990724363732567  0.9224796477289332  0.019054900115523257  1.0000
  C   C3        1.0  0.4383342347563097  0.9424592091525199  0.09743426940999139  1.0000
  C   C4        1.0  0.3739404954042778  0.9274476736197033  0.10671962565299536  1.0000
  C   C5        1.0  0.34024353623159975  0.8924537599798061  0.03753212616639923  1.0000
  C   C6        1.0  0.3724287751466751  0.8722659616267594  0.9591402340304234  1.0000
  C   C7        1.0  0.4368496617480093  0.8872590918550521  0.9500299327068813  1.0000
  C   C8        1.0  0.27197686091497475  0.8770005802827869  0.04775330047966231  1.0000
  S   S1        1.0  0.24499799183365592  0.8280009418526556  0.14223361085369546  1.0000
  N   N2        1.0  0.23116788291791857  0.8943773883206896  0.9722798387588445  1.0000
  C   C9        1.0  0.1645358977844921  0.9052287696150869  0.9795555767918158  1.0000
  C   C10       1.0  0.1257106043197472  0.8742973118390144  0.9138607099853933  1.0000
  C   C11       1.0  0.06088605941543981  0.8859245346432255  0.9184341082811778  1.0000
  C   C12       1.0  0.0343268032679105  0.9296806036774558  0.9881880474682148  1.0000
  C   C13       1.0  0.9676052137891235  0.9417769885803144  0.9928279688806554  1.0000
  N   N3        1.0  0.9139647430912565  0.9515015203320464  0.9965589030576805  1.0000
  C   C14       1.0  0.07290269763034019  0.9622627835595131  0.05299647049954559  1.0000
  C   C15       1.0  0.1377250395332228  0.9506028924964222  0.0484521037195831  1.0000
  H   H1        1.0  0.4634483990178071  0.9697509292872198  0.15130870651578604  1.0000
  H   H2        1.0  0.3503087265069614  0.9440333066790816  0.16760814040167527  1.0000
  H   H3        1.0  0.34828735748188744  0.8433068829411923  0.9055343226204218  1.0000
  H   H4        1.0  0.4609079778019963  0.8710321951888054  0.889302504780829  1.0000
  H   H5        1.0  0.2505577514942041  0.9001825742372305  0.9075812984049385  1.0000
  H   H6        1.0  0.1457507973060505  0.8405683178184717  0.859476560712084  1.0000
  H   H7        1.0  0.031541840699014896  0.8609808079780443  0.8675442761462856  1.0000
  H   H8        1.0  0.0529349209087391  0.9971287183837285  0.10665722273218009  1.0000
  H   H9        1.0  0.1669532560005366  0.9780665963076843  0.09783263491544406  1.0000
  C   C16       1.0  0.7517327188640521  0.696606935888023  0.9992240330556674  1.0000
  C   C17       1.0  0.7918843354935982  0.6245538537977736  0.006118242691096176  1.0000
  C   C18       1.0  0.7690527176445706  0.5423666556490574  0.03602451877968005  1.0000
  C   C19       1.0  0.7054657887883566  0.5303929071305054  0.05897061565530559  1.0000
  C   C20       1.0  0.665500151759621  0.6026255548265304  0.053190846515958984  1.0000
  C   C21       1.0  0.688300920375279  0.6848315578213442  0.02326390064829187  1.0000
  C   C22       1.0  0.6808643651744133  0.44372085810095907  0.09195002973758697  1.0000
  O   O1        1.0  0.6369565379456508  0.43929186352612865  0.14937023165306096  1.0000
  C   C23       1.0  0.7060249772075642  0.3620683205892661  0.05985370651688185  1.0000
  C   C24       1.0  0.7278961673881151  0.3587146337336516  0.971042329595419  1.0000
  C   C25       1.0  0.7507614201635527  0.28113697801838644  0.9411891149108353  1.0000
  C   C26       1.0  0.7517665350284627  0.20513526035474458  0.9992775603231583  1.0000
  C   C27       1.0  0.7291520127445335  0.20823124863916287  0.08776426718398389  1.0000
  C   C28       1.0  0.7062752927454751  0.28582966265520277  0.11757129083222267  1.0000
  H   H10       1.0  0.8561779936709168  0.8536968565661012  0.9221157015689116  1.0000
  H   H11       1.0  0.8410807852278053  0.63162780672531  0.9887841988143748  1.0000
  H   H12       1.0  0.8013452823664804  0.48835268251169084  0.04214819272359663  1.0000
  H   H13       1.0  0.6163917804181449  0.595340624860679  0.07110885355016838  1.0000
  H   H14       1.0  0.6562208223577479  0.739146161130315  0.01899619477491078  1.0000
  H   H15       1.0  0.7266867687023202  0.41586399946673464  0.9242694505336502  1.0000
  H   H16       1.0  0.7673925820836532  0.2807029630632346  0.8724374012771388  1.0000
  H   H17       1.0  0.7290955280338454  0.1506750205911708  0.13405881874879413  1.0000
  H   H18       1.0  0.6892478598125703  0.28644356233970447  0.1861421706921692  1.0000
  H   H19       1.0  0.8150033250207366  0.06495971987438251  0.8571033483734805  1.0000
  C   C29       1.0  0.751745710912527  0.9509680218770836  0.7361126884286107  1.0000
  C   C30       1.0  0.7784725686354493  0.8868610045876829  0.6860798257499083  1.0000
  C   C31       1.0  0.7469259800525159  0.8569146286476169  0.6129696148775299  1.0000
  C   C32       1.0  0.6877774084931493  0.8902249906228162  0.5884266977886905  1.0000
  C   C33       1.0  0.6612602597983199  0.954697296112087  0.6383178163958516  1.0000
  C   C34       1.0  0.6928110144234627  0.9846370010929226  0.7114302551340721  1.0000
  C   C35       1.0  0.6532758862777976  0.8593308531291441  0.5084349461665996  1.0000
  C   C36       1.0  0.640018180484547  0.7607572230573993  0.520055368677549  1.0000
  N   N4        1.0  0.6057385187614666  0.7326743620134609  0.4432368038885082  1.0000
  C   C37       1.0  0.6874220174228266  0.8888945681162005  0.4213504479899293  1.0000
  C   C38       1.0  0.671210205158143  0.9686677854324371  0.3759372280413555  1.0000
  C   C39       1.0  0.7027577906321528  0.9991035872651058  0.2971749142658886  1.0000
  C   C40       1.0  0.7517535205666835  0.9507741632971982  0.26238894566816295  1.0000
  C   C41       1.0  0.7686648194685154  0.8716179987548752  0.30822687913568464  1.0000
  C   C42       1.0  0.7371244417584288  0.8411670061161896  0.38702129220700265  1.0000
  H   H20       1.0  0.8671408719215661  0.9699045273754179  0.8901345100570155  1.0000
  H   H21       1.0  0.8238830371977809  0.85978623956494  0.7032716098008902  1.0000
  H   H22       1.0  0.7689376770296079  0.8077460460396501  0.575694078353528  1.0000
  H   H23       1.0  0.6160285164150076  0.9821409758876273  0.6206771122585206  1.0000
  H   H24       1.0  0.6710397911878174  0.034278616303081905  0.7485311141877431  1.0000
  H   H25       1.0  0.6061261292520064  0.8900713513083381  0.5060382080436263  1.0000
  H   H26       1.0  0.6840864608468801  0.723096467375795  0.527766966388513  1.0000
  H   H27       1.0  0.6117653550588474  0.7458262541067916  0.5825222491463711  1.0000
  H   H28       1.0  0.6003232340994009  0.6652703454211942  0.4524407765391856  1.0000
  H   H29       1.0  0.5607011011813962  0.7590311599649435  0.44462649428814105  1.0000
  H   H30       1.0  0.6340142724755498  0.007690542360937244  0.40166572031693426  1.0000
  H   H31       1.0  0.6888663891454088  0.060664889883770286  0.2637137178375293  1.0000
  H   H32       1.0  0.8064782968298135  0.8331361227295676  0.2834103985973093  1.0000
  H   H33       1.0  0.7519089195935428  0.7802973086482339  0.4206402448393167  1.0000
  H   H34       1.0  0.8572093641665464  0.9557071153693069  0.0881843297381764  1.0000
  Zn  Zn1       1.0  0.6831538028311316  0.9506069342778057  0.00038879208714215135  1.0000
  Zn  Zn2       1.0  0.8203394514964999  0.9511348134753819  0.9981125104430322  1.0000
  C   C43       1.0  0.7517504312523356  0.9473613916200969  0.16291110854630175  1.0000
  C   C44       1.0  0.7517443212122593  0.954381454370735  0.8355902571916922  1.0000
  C   C45       1.0  0.7517568632158692  0.10901387779786843  0.9956967324483577  1.0000
  C   C46       1.0  0.7517378423683969  0.7927279277053803  0.002804681730313899  1.0000
  O   O2        1.0  0.8038050932844902  0.9557235834211241  0.8681120005886205  1.0000
  O   O3        1.0  0.803810392210018  0.9464192575577149  0.12866146203482332  1.0000
  O   O4        1.0  0.8038148843053715  0.07695568147725877  0.9936346820061905  1.0000
  O   O5        1.0  0.8038005543763804  0.8251871655402055  0.003138714207767344  1.0000
  O   O6        1.0  0.6996926531365217  0.07655458203378722  0.9953625890944766  1.0000
  O   O7        1.0  0.6996881611067681  0.946019198422631  0.13038932145450144  1.0000
  O   O8        1.0  0.6996828622048488  0.9553234945098444  0.8698387826642908  1.0000
  O   O9        1.0  0.6996783232947663  0.8247870704111055  0.0048655634649936745  1.0000
