data_image0
_chemical_formula_structural       NC5NC3OH4C9H8C7ONH5Zn2C4O8
_chemical_formula_sum              "N3 C28 O10 H17 Zn2"
_cell_length_a       13.84702359539666
_cell_length_b       9.275152443626249
_cell_length_c       9.273042158839658
_cell_angle_alpha    85.96394158152518
_cell_angle_beta     90.0789287002439
_cell_angle_gamma    90.5743638874884

_space_group_name_H-M_alt    "P 1"
_space_group_IT_number       1

loop_
  _space_group_symop_operation_xyz
  'x, y, z'

loop_
  _atom_site_type_symbol
  _atom_site_label
  _atom_site_symmetry_multiplicity
  _atom_site_fract_x
  _atom_site_fract_y
  _atom_site_fract_z
  _atom_site_occupancy
  N   N1        1.0  0.9181118802947484  0.5620335229107747  0.4043886828626768  1.0000
  C   C1        1.0  0.8459827742893385  0.5540256421443563  0.46747141988111934  1.0000
  C   C2        1.0  0.7561549947920317  0.5440541388987314  0.5460227192114002  1.0000
  C   C3        1.0  0.6685528290880326  0.5536872366625347  0.4701365257264847  1.0000
  C   C4        1.0  0.5807092399354198  0.544166059576056  0.5451406290801506  1.0000
  C   C5        1.0  0.4908396384904805  0.5540840902530477  0.46701067834031473  1.0000
  N   N2        1.0  0.4185961100409124  0.5620574278802342  0.40420042657733624  1.0000
  C   C6        1.0  0.5804625168730972  0.5249830418356227  0.6962563835988052  1.0000
  C   C7        1.0  0.6676844676578427  0.5153409363025223  0.7722106339705441  1.0000
  C   C8        1.0  0.7558436025058969  0.5248007692463337  0.6976913861643592  1.0000
  O   O1        1.0  0.8427859544745403  0.5151422220481201  0.7737770862733901  1.0000
  H   H1        1.0  0.6687485499107187  0.5685487062331644  0.3530650417478638  1.0000
  H   H2        1.0  0.5129218136066953  0.5174893650163968  0.7552880647703659  1.0000
  H   H3        1.0  0.6667103387297224  0.5005089514737419  0.8890506242534442  1.0000
  H   H4        1.0  0.8443440046371293  0.5012608550598028  0.8831276068595103  1.0000
  C   C9        1.0  0.16551147248731102  0.1384285423970415  0.40576709253678794  1.0000
  C   C10       1.0  0.13053141449500782  0.21987645846860482  0.2833321188743183  1.0000
  C   C11       1.0  0.10452554152083326  0.15311990871456893  0.15860123434998696  1.0000
  C   C12       1.0  0.11309079165223235  0.003728213933853247  0.15383564891688795  1.0000
  C   C13       1.0  0.1461811861412694  0.9205811602080975  0.27523648814985124  1.0000
  C   C14       1.0  0.1712056878525956  0.9856514642868214  0.4028344410302471  1.0000
  C   C15       1.0  0.08677640036913048  0.9352167580367637  0.02466874159255749  1.0000
  C   C16       1.0  0.06474423518861494  0.8778209868212536  0.9165117078865709  1.0000
  C   C17       1.0  0.03801255492474431  0.8081693691003696  0.7852821159058561  1.0000
  H   H5        1.0  0.3046123456006251  0.22311872083420314  0.6935653490491906  1.0000
  H   H6        1.0  0.12544374540118008  0.33638892587431  0.28288065872090895  1.0000
  H   H7        1.0  0.07859702036989002  0.2183751503823299  0.06526309363502558  1.0000
  H   H8        1.0  0.1502425417843998  0.8042289711130728  0.27121418027009625  1.0000
  H   H9        1.0  0.2617659052037662  0.6924302357588349  0.5996805090577721  1.0000
  H   H10       1.0  0.055682686563982564  0.6915902193617354  0.7987406002439768  1.0000
  H   H11       1.0  0.9593881221110354  0.8205403351147421  0.7655799850059881  1.0000
  H   H12       1.0  0.07868744925671091  0.8595371143581626  0.6919715473664376  1.0000
  C   C18       1.0  0.16786681799327874  0.5575816529920468  0.9810514857468955  1.0000
  C   C19       1.0  0.07922894885384735  0.5667634307956815  0.05373386856762318  1.0000
  C   C20       1.0  0.9924287894331818  0.5898986452116985  0.97743032739639  1.0000
  C   C21       1.0  0.994790189273685  0.6021097081363973  0.8258885018621913  1.0000
  C   C22       1.0  0.08183286209653895  0.5908098934954229  0.7522046144221037  1.0000
  C   C23       1.0  0.16885036365785938  0.5664982818779094  0.8275501126551732  1.0000
  C   C24       1.0  0.900212580767938  0.5998528016485767  0.05729059730001729  1.0000
  O   O2        1.0  0.8933856328761565  0.5440286133718812  0.18485687795609795  1.0000
  N   N3        1.0  0.8185589618905311  0.6730333122039038  0.9935317173788021  1.0000
  H   H13       1.0  0.40254127632978376  0.6126940544588235  0.08073265730819211  1.0000
  H   H14       1.0  0.9292140421467312  0.6163695338329678  0.7632407069319664  1.0000
  H   H15       1.0  0.3269833745213418  0.5969261060746092  0.544463611817811  1.0000
  H   H16       1.0  0.8236284413818997  0.7353267752995138  0.8956485145042903  1.0000
  H   H17       1.0  0.7532849989984126  0.6728678273819295  0.04979929902316081  1.0000
  Zn  Zn1       1.0  0.06254079991914763  0.5620366470843472  0.4043426802671956  1.0000
  Zn  Zn2       1.0  0.2741671006910562  0.5620426241035568  0.40425823272636546  1.0000
  C   C25       1.0  0.16862364856491796  0.5590660593111365  0.667563616022438  1.0000
  C   C26       1.0  0.16808657539552163  0.5650150335781317  0.14103743121292212  1.0000
  C   C27       1.0  0.17011770973889348  0.8254477701098617  0.39764531778620205  1.0000
  C   C28       1.0  0.16659243044899408  0.2986315904337882  0.41095581231932277  1.0000
  O   O3        1.0  0.24847136393236635  0.5675057188626098  0.19469815038356963  1.0000
  O   O4        1.0  0.24885831781841805  0.5565788178193256  0.6138383919889356  1.0000
  O   O5        1.0  0.2500637102208927  0.771685433901663  0.39587745168646626  1.0000
  O   O6        1.0  0.24726589925996748  0.35239911195928353  0.41265898261117706  1.0000
  O   O7        1.0  0.08944192913256788  0.771680159228072  0.3959419304036149  1.0000
  O   O8        1.0  0.08823654828497719  0.5565752754908031  0.6139027878571512  1.0000
  O   O9        1.0  0.08784959211193555  0.5675021080113563  0.19476081355840047  1.0000
  O   O10       1.0  0.0866441274917924  0.3523954919284702  0.4127217538821015  1.0000
