data_image0
_chemical_formula_structural       NC9NC3OH6C6FH5C6OCH6Zn2C4O8
_chemical_formula_sum              "N2 C29 O10 H17 F1 Zn2"
_cell_length_a       15.78231758774541
_cell_length_b       9.275642734913905
_cell_length_c       9.273891588657152
_cell_angle_alpha    85.99709959314171
_cell_angle_beta     89.76748324947235
_cell_angle_gamma    90.23470761467162

_space_group_name_H-M_alt    "P 1"
_space_group_IT_number       1

loop_
  _space_group_symop_operation_xyz
  'x, y, z'

loop_
  _atom_site_type_symbol
  _atom_site_label
  _atom_site_symmetry_multiplicity
  _atom_site_fract_x
  _atom_site_fract_y
  _atom_site_fract_z
  _atom_site_occupancy
  N   N1        1.0  0.8126909492069868  0.5550538644859364  0.4105722996984258  1.0000
  C   C1        1.0  0.763509527805062  0.4641646686405203  0.43742733561119235  1.0000
  C   C2        1.0  0.7024491558052636  0.3513490875036325  0.47076135173919464  1.0000
  C   C3        1.0  0.7210995065300629  0.20963373912854277  0.512546114372358  1.0000
  C   C4        1.0  0.6438780905464558  0.1409536834006489  0.532879387055748  1.0000
  C   C5        1.0  0.582846461157457  0.24583967548219568  0.5019996956114721  1.0000
  C   C6        1.0  0.48961666874862514  0.22644878136785265  0.5078107258869868  1.0000
  C   C7        1.0  0.4367212688903061  0.34534854043505003  0.4726215635766737  1.0000
  C   C8        1.0  0.3484009358591045  0.3294485441534808  0.4773944164295332  1.0000
  C   C9        1.0  0.2948337906127315  0.4518076704651023  0.4411722548400814  1.0000
  N   N2        1.0  0.2517785923832607  0.5501686085982354  0.4120528812313249  1.0000
  C   C10       1.0  0.3122934435355759  0.19447184362580172  0.5174110608302425  1.0000
  C   C11       1.0  0.36425965207579064  0.07581795028255224  0.5525323062846561  1.0000
  C   C12       1.0  0.4523911998376927  0.09128113537185972  0.5478891597356654  1.0000
  O   O1        1.0  0.6201929222052895  0.37014222987279327  0.4652950818007961  1.0000
  H   H1        1.0  0.7832187325374111  0.16184172835344302  0.526580999522628  1.0000
  H   H2        1.0  0.6343392655134658  0.028024576532584836  0.566193465329135  1.0000
  H   H3        1.0  0.46407755484417834  0.4503842993000635  0.4414762784106612  1.0000
  H   H4        1.0  0.2440807375449148  0.18100535169748858  0.5214510634100462  1.0000
  H   H5        1.0  0.3361781818848613  0.9715002746358186  0.5834651362475076  1.0000
  H   H6        1.0  0.49080595884225875  0.9972989787986782  0.5757168156914616  1.0000
  C   C13       1.0  0.02961679137872174  0.1291019994278606  0.411923522616666  1.0000
  C   C14       1.0  0.013637001617792016  0.21141753509316621  0.28165685616572866  1.0000
  C   C15       1.0  0.005647874520767311  0.14505830266459796  0.151861770043193  1.0000
  C   C16       1.0  0.013582557589619113  0.9956625755948361  0.15003972443598013  1.0000
  C   C17       1.0  0.028037532882086987  0.911756320254517  0.27828492527437043  1.0000
  C   C18       1.0  0.034860744745123684  0.9761094142918159  0.4107141277643369  1.0000
  F   F1        1.0  0.9911779875523844  0.22619360778676237  0.027136172456152515  1.0000
  H   H7        1.0  0.11613054406782103  0.2101907534123164  0.7341696136416827  1.0000
  H   H8        1.0  0.009316944955147788  0.3280743310155674  0.2797975927659653  1.0000
  H   H9        1.0  0.007721286921791077  0.9443567127023241  0.04921332066366757  1.0000
  H   H10       1.0  0.031876494478386225  0.7955179336061865  0.2743364679950191  1.0000
  H   H11       1.0  0.08971716230871342  0.6800475418049873  0.6294921105822262  1.0000
  C   C19       1.0  0.033603099151499734  0.5487707289590473  0.9880536366168764  1.0000
  C   C20       1.0  0.10336494760941001  0.6089134883920562  0.05677432181070241  1.0000
  C   C21       1.0  0.16838759945852477  0.6798788445987258  0.9770799795983546  1.0000
  C   C22       1.0  0.1638815668832153  0.6910602492249113  0.8256080480273615  1.0000
  C   C23       1.0  0.09589431642455376  0.6300244414664125  0.755552413829768  1.0000
  C   C24       1.0  0.030874398252553652  0.5564406369565398  0.8345840096751465  1.0000
  O   O2        1.0  0.23582463172877766  0.7382716838120214  0.052428305816602835  1.0000
  C   C25       1.0  0.3060640365226268  0.813394998761965  0.9854788214350106  1.0000
  H   H12       1.0  0.8315278168132104  0.4624345599681264  0.09851781542091564  1.0000
  H   H13       1.0  0.21302897493015083  0.7455884418339377  0.7607718521972782  1.0000
  H   H14       1.0  0.896078101628086  0.49258266678158164  0.5587815149900908  1.0000
  H   H15       1.0  0.2839253114481697  0.9112421558612873  0.9208672085178122  1.0000
  H   H16       1.0  0.3409479992645615  0.7414263543809902  0.9152874714955668  1.0000
  H   H17       1.0  0.34964778695751497  0.8473845028582458  0.07041938816865811  1.0000
  Zn  Zn1       1.0  0.9394021039096392  0.5536403082267936  0.41100788572783853  1.0000
  Zn  Zn2       1.0  0.12506729833441188  0.5515705009271206  0.41162909461108455  1.0000
  C   C26       1.0  0.031352735139704706  0.549245566247661  0.6745798581494189  1.0000
  C   C27       1.0  0.03311870537238401  0.5559670412688663  0.14805726784451534  1.0000
  C   C28       1.0  0.03388366324195502  0.8159549948723526  0.4051990260584122  1.0000
  C   C29       1.0  0.03058770294043155  0.28925588133448543  0.41743817904257274  1.0000
  O   O3        1.0  0.10341507312372022  0.5575904165437622  0.20199170265302602  1.0000
  O   O4        1.0  0.10197194855820951  0.5460501633856059  0.6211164931470654  1.0000
  O   O5        1.0  0.10401475035710007  0.7614214241689902  0.40358956000037516  1.0000
  O   O6        1.0  0.1013722083821042  0.34221916580424927  0.4195185275009918  1.0000
  O   O7        1.0  0.9630971305035629  0.76299164405749  0.40311845261835977  1.0000
  O   O8        1.0  0.9610543396759896  0.5476221152916199  0.6206453064384272  1.0000
  O   O9        1.0  0.962497469572589  0.5591623024913315  0.20151878308387627  1.0000
  O   O10       1.0  0.9604546044153139  0.3437910424157723  0.4190457160109955  1.0000
