data_image0
_chemical_formula_structural       NC5NC3BrH3C7NH5C6NCOH5Zn2C4O8
_chemical_formula_sum              "N4 C26 Br1 H13 O9 Zn2"
_cell_length_a       13.839083392302014
_cell_length_b       9.275154477615127
_cell_length_c       9.27373355559583
_cell_angle_alpha    86.40037001266045
_cell_angle_beta     90.01178760078571
_cell_angle_gamma    89.45968127068964

_space_group_name_H-M_alt    "P 1"
_space_group_IT_number       1

loop_
  _space_group_symop_operation_xyz
  'x, y, z'

loop_
  _atom_site_type_symbol
  _atom_site_label
  _atom_site_symmetry_multiplicity
  _atom_site_fract_x
  _atom_site_fract_y
  _atom_site_fract_z
  _atom_site_occupancy
  N   N1        1.0  0.8993506845606609  0.5615010117512449  0.41642942411771755  1.0000
  C   C1        1.0  0.8277696455253641  0.49789185867433705  0.41864122151011585  1.0000
  C   C2        1.0  0.7385848466646061  0.4187400777401862  0.42139330450322476  1.0000
  C   C3        1.0  0.6505236151373864  0.4949012787364635  0.4187453973052588  1.0000
  C   C4        1.0  0.5629719219962993  0.4202120500391367  0.42134206823364284  1.0000
  C   C5        1.0  0.472692693726797  0.49872344808364794  0.4186122905114431  1.0000
  N   N2        1.0  0.4001198824812676  0.5618404549874054  0.41641756619720716  1.0000
  C   C6        1.0  0.56341769079591  0.2690502765988734  0.4265975188991207  1.0000
  C   C7        1.0  0.6510346797167966  0.19276786868336693  0.4292495487606598  1.0000
  C   C8        1.0  0.7387871309588022  0.26674333676681505  0.42667771337088833  1.0000
  Br  Br1       1.0  0.8569192390648064  0.1567090147729611  0.43050337219482415  1.0000
  H   H1        1.0  0.6501230915701974  0.6120388576430271  0.4146726684311586  1.0000
  H   H2        1.0  0.49611302227763626  0.2102276281216009  0.4286423417781411  1.0000
  H   H3        1.0  0.6506703555597666  0.0758793652899037  0.43331324055164816  1.0000
  C   C9        1.0  0.1525359763895584  0.13826542160879818  0.41475561593334553  1.0000
  C   C10       1.0  0.1260053566184145  0.22006258414438573  0.28767873568207625  1.0000
  C   C11       1.0  0.09161554627507318  0.1527091599731798  0.1673335260659472  1.0000
  C   C12       1.0  0.0831901455771682  0.0026399619317414315  0.17264787471454945  1.0000
  C   C13       1.0  0.11061616262427032  0.9196046413389102  0.2968281032453603  1.0000
  C   C14       1.0  0.14694391405921903  0.9850650851913721  0.41810386487179274  1.0000
  C   C15       1.0  0.06379929418081787  0.23807082439268593  0.03872506084609606  1.0000
  N   N3        1.0  0.04144274307881246  0.30668605535618054  0.9353567975575041  1.0000
  H   H4        1.0  0.1712928290802156  0.21874638026405366  0.7685370013701123  1.0000
  H   H5        1.0  0.12995129066031308  0.3369787592190032  0.2834021856316351  1.0000
  H   H6        1.0  0.056244545858881174  0.9495023777410592  0.08015503500637089  1.0000
  H   H7        1.0  0.10554216995102306  0.8031322447521854  0.296701382623757  1.0000
  H   H8        1.0  0.16367379549132788  0.6888504030999829  0.6551473579959892  1.0000
  C   C16       1.0  0.14971465021319122  0.557122488119919  0.9931847532003205  1.0000
  C   C17       1.0  0.060958778963693394  0.5487866927098566  0.06710559700943475  1.0000
  C   C18       1.0  0.9730044987960941  0.5521361076571389  0.9921716729498938  1.0000
  C   C19       1.0  0.9737493833921057  0.568508050130502  0.8408886493932609  1.0000
  C   C20       1.0  0.061066523380935336  0.5746913486464884  0.7657553404813084  1.0000
  C   C21       1.0  0.14976523157692265  0.5662079750291735  0.8396747063261816  1.0000
  N   N4        1.0  0.88394098777233  0.5470187092258494  0.07216827300277995  1.0000
  C   C22       1.0  0.7973239306765315  0.4805644321657308  0.02512538823700838  1.0000
  O   O1        1.0  0.7973197079296278  0.4042609861447081  0.9174728704119034  1.0000
  H   H9        1.0  0.3767544407324295  0.6573938089035138  0.0898886663828451  1.0000
  H   H10       1.0  0.9069522968650082  0.578062652737183  0.7803135738121972  1.0000
  H   H11       1.0  0.30348254842575506  0.6276488053935427  0.5548073392408748  1.0000
  H   H12       1.0  0.8833417648545525  0.5853555937615271  0.17573886229465985  1.0000
  H   H13       1.0  0.7311999405728163  0.4926116833568203  0.08559560362441254  1.0000
  Zn  Zn1       1.0  0.04386188684863004  0.5615951913999169  0.41643431647925233  1.0000
  Zn  Zn2       1.0  0.2556087510835938  0.561734584424517  0.4164244552992699  1.0000
  C   C23       1.0  0.1497914480439704  0.5587466896464592  0.6796472497838282  1.0000
  C   C24       1.0  0.14968149015206555  0.5645849084551602  0.1532116705430342  1.0000
  C   C25       1.0  0.14799561181335738  0.8249402553513823  0.4117275098794003  1.0000
  C   C26       1.0  0.1514772655724861  0.2983896112402531  0.42113148044279525  1.0000
  O   O2        1.0  0.2300272343210783  0.567135973567477  0.2069143987294393  1.0000
  O   O3        1.0  0.2301566814985765  0.556300328448772  0.6259366179931865  1.0000
  O   O4        1.0  0.2287054378719413  0.77125501460484  0.40958953842195917  1.0000
  O   O5        1.0  0.2314784056182817  0.3521812965181841  0.4232613702779622  1.0000
  O   O6        1.0  0.06799216005511872  0.7711484792601704  0.40959740149635016  1.0000
  O   O7        1.0  0.06944339223312235  0.5561955245680053  0.6259444110680343  1.0000
  O   O8        1.0  0.0693139453481395  0.567031100843501  0.20692045875600118  1.0000
  O   O9        1.0  0.07076511671595154  0.3520764146413533  0.4232675383230189  1.0000
