data_image0
_chemical_formula_structural       NC9NC3SH6C9H10C7OCH10Zn2C4O8
_chemical_formula_sum              "N2 C33 S1 H26 O9 Zn2"
_cell_length_a       16.77567553997237
_cell_length_b       9.272676604525723
_cell_length_c       10.300835455316063
_cell_angle_alpha    85.82006583043875
_cell_angle_beta     90.414716717709
_cell_angle_gamma    91.44448428757873

_space_group_name_H-M_alt    "P 1"
_space_group_IT_number       1

loop_
  _space_group_symop_operation_xyz
  'x, y, z'

loop_
  _atom_site_type_symbol
  _atom_site_label
  _atom_site_symmetry_multiplicity
  _atom_site_fract_x
  _atom_site_fract_y
  _atom_site_fract_z
  _atom_site_occupancy
  N   N1        1.0  0.7589589381747244  0.5988084291035507  0.5811051322752003  1.0000
  C   C1        1.0  0.704511930718417  0.6536043707216275  0.622924876173318  1.0000
  C   C2        1.0  0.6369423750511055  0.7216025112676263  0.674819981043788  1.0000
  C   C3        1.0  0.6396207947620559  0.81946292753836  0.7702647754255454  1.0000
  C   C4        1.0  0.5642486269681637  0.8677538891584292  0.8019711466361601  1.0000
  C   C5        1.0  0.5019088981213825  0.8077099044216091  0.7311185363336683  1.0000
  C   C6        1.0  0.41557544185854584  0.8366609745241379  0.7420872265438272  1.0000
  C   C7        1.0  0.3582733326026993  0.7482525040254031  0.6834443113626415  1.0000
  C   C8        1.0  0.2767774021434757  0.7749704219948165  0.6933473429838242  1.0000
  C   C9        1.0  0.2187916653798612  0.68359776975383  0.633297088671551  1.0000
  N   N2        1.0  0.172188228352304  0.6101472514221864  0.5850255549704887  1.0000
  C   C10       1.0  0.251755583999468  0.8904449896826754  0.7617336179008711  1.0000
  C   C11       1.0  0.3079668888755084  0.9790297030453831  0.8199157091937203  1.0000
  C   C12       1.0  0.3893073856534474  0.9527153003807918  0.8103088956499699  1.0000
  S   S1        1.0  0.5418655236193821  0.6943009366582016  0.6295544709751062  1.0000
  H   H1        1.0  0.6942227755020649  0.8548613825003786  0.8161733836852707  1.0000
  H   H2        1.0  0.5564026698077819  0.943186411750869  0.8757560902111952  1.0000
  H   H3        1.0  0.3765762313984469  0.6579461796089427  0.6306309171441424  1.0000
  H   H4        1.0  0.18888878939932913  0.91205875751345  0.769909453358961  1.0000
  H   H5        1.0  0.2884796369116764  0.06865675898739675  0.872408873342776  1.0000
  H   H6        1.0  0.4311414330858124  0.024519321458824638  0.855357581708689  1.0000
  C   C13       1.0  0.9633178312579793  0.18092700364131106  0.5813851944231965  1.0000
  C   C14       1.0  0.9314167036242234  0.24418598312899406  0.6886216571623419  1.0000
  C   C15       1.0  0.9068114355338965  0.15941018587657663  0.7991008280783892  1.0000
  C   C16       1.0  0.9133133080589751  0.008841576296358972  0.8060614144723953  1.0000
  C   C17       1.0  0.9439078688384863  0.9440967506226782  0.6978121326907084  1.0000
  C   C18       1.0  0.9678369350895053  0.02801780209405247  0.584756797346899  1.0000
  C   C19       1.0  0.8858592754369996  0.9245133191877075  0.9305350145472817  1.0000
  C   C20       1.0  0.8455580288020785  0.7773087638249949  0.9172241632245469  1.0000
  C   C21       1.0  0.9297624003138334  0.7870808851158538  0.97296508504399  1.0000
  H   H7        1.0  0.9809916166134032  0.48016732697288855  0.36877391347457905  1.0000
  H   H8        1.0  0.9272093785183418  0.36059302139550176  0.6884569153480519  1.0000
  H   H9        1.0  0.8832025885632631  0.21223591069141604  0.880463399008619  1.0000
  H   H10       1.0  0.9477119823275484  0.8278011944915542  0.6990539968184457  1.0000
  H   H11       1.0  0.9884779295090266  0.9516631692651044  0.2670114963080305  1.0000
  H   H12       1.0  0.8633001900078633  0.9840443676718252  0.01207661961554518  1.0000
  H   H13       1.0  0.8418423192523047  0.7379236974551915  0.8181996549559432  1.0000
  H   H14       1.0  0.7993582255381511  0.7472836632375548  0.9916965523170062  1.0000
  H   H15       1.0  0.9771720701955604  0.7535027412059765  0.9078766491698829  1.0000
  H   H16       1.0  0.93277395233436  0.7627610129971116  0.08003249527119016  1.0000
  C   C22       1.0  0.965504525843622  0.6043968325382472  0.20175346833202035  1.0000
  C   C23       1.0  0.039083882818941935  0.6801962299209989  0.19680513469257807  1.0000
  C   C24       1.0  0.07568857971073449  0.7198881890491817  0.0770912690210328  1.0000
  C   C25       1.0  0.039275343271743195  0.6803931189931656  0.961508919349085  1.0000
  C   C26       1.0  0.9656502287076876  0.6045479698047613  0.9643885328121078  1.0000
  C   C27       1.0  0.9291099167616852  0.5673023227050622  0.08494850999943848  1.0000
  C   C28       1.0  0.1555067589383039  0.7972450779849238  0.07317868883317424  1.0000
  O   O1        1.0  0.21588182282643897  0.6936404783248651  0.08084586427853123  1.0000
  C   C29       1.0  0.2911484825010764  0.7649224172664048  0.0772920846473879  1.0000
  H   H17       1.0  0.9377604766884056  0.5738833182461182  0.5311497085463562  1.0000
  H   H18       1.0  0.06823251949962361  0.7086481619517233  0.2859288608419037  1.0000
  H   H19       1.0  0.06855530518000208  0.7089815264113981  0.8694595838770276  1.0000
  H   H20       1.0  0.8723661005110473  0.5088317278176364  0.08800253650837762  1.0000
  H   H21       1.0  0.8271969577406486  0.46004686992673416  0.7626692113811671  1.0000
  H   H22       1.0  0.16010188261877856  0.8677624587482942  0.15618156727250532  1.0000
  H   H23       1.0  0.16028675045090068  0.8677895278485491  0.9810693597127582  1.0000
  H   H24       1.0  0.3379368163383376  0.68223268524228  0.08338350336934042  1.0000
  H   H25       1.0  0.29957156127062196  0.8321155312182618  0.16177805418106783  1.0000
  H   H26       1.0  0.29976657378899074  0.8321810360955243  0.9842691246950364  1.0000
  Zn  Zn1       1.0  0.878207968840259  0.6020767189206726  0.5822439728148033  1.0000
  Zn  Zn2       1.0  0.052939131988455124  0.6068671975584545  0.5838973312768077  1.0000
  C   C30       1.0  0.9655902418197382  0.5987734436873142  0.820211268412834  1.0000
  C   C31       1.0  0.9655587768008278  0.6101723449911729  0.3459301884260817  1.0000
  C   C32       1.0  0.9669776135616676  0.867898482808938  0.5789449668536484  1.0000
  C   C33       1.0  0.9641713362039729  0.34104557136579833  0.5871965517531778  1.0000
  O   O2        1.0  0.03188651614440462  0.613922328996048  0.3949446286350013  1.0000
  O   O3        1.0  0.03187940642558562  0.5986582339637239  0.7724513108940132  1.0000
  O   O4        1.0  0.032998833026171015  0.8159800823657044  0.5776270628966899  1.0000
  O   O5        1.0  0.030767029956354275  0.3966004892578894  0.5897687787476671  1.0000
  O   O6        1.0  0.9003800112451965  0.812343425588051  0.5763725247729103  1.0000
  O   O7        1.0  0.8992605938723733  0.5950233100566353  0.7711967104312898  1.0000
  O   O8        1.0  0.8992677030778502  0.6102873545193972  0.39368846678246333  1.0000
  O   O9        1.0  0.8981482168501017  0.3929655044842302  0.5885127142087531  1.0000
