data_image0
_chemical_formula_structural       NC5OC5NC4H8C6NCH9C6SCH8Zn2C4O8
_chemical_formula_sum              "N3 C32 O9 H25 S1 Zn2"
_cell_length_a       19.189071930511275
_cell_length_b       9.273386996610926
_cell_length_c       10.302812801239595
_cell_angle_alpha    85.46621381537472
_cell_angle_beta     89.97791177301549
_cell_angle_gamma    89.38971707573329

_space_group_name_H-M_alt    "P 1"
_space_group_IT_number       1

loop_
  _space_group_symop_operation_xyz
  'x, y, z'

loop_
  _atom_site_type_symbol
  _atom_site_label
  _atom_site_symmetry_multiplicity
  _atom_site_fract_x
  _atom_site_fract_y
  _atom_site_fract_z
  _atom_site_occupancy
  N   N1        1.0  0.6482093012884478  0.5787061935754307  0.5651512821413298  1.0000
  C   C1        1.0  0.5934925133236905  0.6299378291624063  0.5467896546266935  1.0000
  C   C2        1.0  0.5254318947626077  0.6936614466428095  0.5239505505152349  1.0000
  C   C3        1.0  0.5151900488009554  0.8013322152368874  0.42240533968646643  1.0000
  C   C4        1.0  0.44907610368702117  0.8633127014113345  0.4003455223259691  1.0000
  C   C5        1.0  0.3925458143195204  0.8175074030180869  0.4784762220598941  1.0000
  O   O1        1.0  0.3272404270528628  0.8835221443793171  0.4541462327881607  1.0000
  C   C6        1.0  0.26260584629629  0.8172968329154534  0.4779124986621812  1.0000
  C   C7        1.0  0.20540608024962484  0.9034889197866651  0.5080353901638114  1.0000
  C   C8        1.0  0.1399193174301917  0.8418255580839821  0.5309451420076163  1.0000
  C   C9        1.0  0.13097754987738233  0.6931677349235161  0.5226275538455993  1.0000
  C   C10       1.0  0.0635621511269211  0.629665807322388  0.5460606268824928  1.0000
  N   N2        1.0  0.009364149766700795  0.5786124662677969  0.5649002146127056  1.0000
  C   C11       1.0  0.18770581579493834  0.6066331908712659  0.4905883659101802  1.0000
  C   C12       1.0  0.2531834963551236  0.6683403665223155  0.46772217132966376  1.0000
  C   C13       1.0  0.4032647388089718  0.7108393523270469  0.5816378368332562  1.0000
  C   C14       1.0  0.46936979385859323  0.6488543065283716  0.603759020260691  1.0000
  H   H1        1.0  0.5582554186274344  0.8374494895582255  0.3604795819412512  1.0000
  H   H2        1.0  0.4416183014651105  0.9466710951785122  0.3217766705291303  1.0000
  H   H3        1.0  0.21185748560474474  0.018548285386043244  0.5144392144851293  1.0000
  H   H4        1.0  0.09632488109275789  0.9099976990448452  0.554940715646241  1.0000
  H   H5        1.0  0.18124702976019666  0.49174396355696465  0.4826099174835694  1.0000
  H   H6        1.0  0.2960676546478073  0.6004000713998754  0.4403135688025625  1.0000
  H   H7        1.0  0.3608960514509357  0.6771408470660447  0.6460124971795678  1.0000
  H   H8        1.0  0.47682823848320516  0.5666599348307675  0.6834172977923447  1.0000
  C   C15       1.0  0.8309330412586663  0.1550048040609542  0.5656622226385802  1.0000
  C   C16       1.0  0.843169262910202  0.23847723669350152  0.4482663665969433  1.0000
  C   C17       1.0  0.8488439846986443  0.17397288290208568  0.33086781585474534  1.0000
  C   C18       1.0  0.8423683277677915  0.02367389842449863  0.32786355412191837  1.0000
  C   C19       1.0  0.8313601897873149  0.9392382328499964  0.44485077902616726  1.0000
  C   C20       1.0  0.8266471411869258  0.0023027724587898423  0.5644005236496685  1.0000
  N   N3        1.0  0.8474539389738115  0.9541332729589448  0.20804168518905516  1.0000
  C   C21       1.0  0.8590630920095376  0.03202676647719894  0.08134123166324735  1.0000
  H   H9        1.0  0.8451704098556881  0.41714581670862316  0.7787996556480439  1.0000
  H   H10       1.0  0.8467236834072511  0.35512220806912453  0.4466710916143361  1.0000
  H   H11       1.0  0.8576322984356665  0.24257272721990628  0.24267450925680145  1.0000
  H   H12       1.0  0.8280708837641134  0.8228380167122373  0.4428049677622796  1.0000
  H   H13       1.0  0.8523057041591569  0.8709341450055876  0.8805949220428351  1.0000
  H   H14       1.0  0.8425271108639151  0.8417674283011617  0.21073729640462674  1.0000
  H   H15       1.0  0.8158617005985771  0.11061153680112555  0.058814005134270486  1.0000
  H   H16       1.0  0.9095031890857016  0.0895654297947941  0.08151566339493364  1.0000
  H   H17       1.0  0.860819854057961  0.954589721684307  0.004480607088588101  1.0000
  C   C22       1.0  0.8287901192553586  0.5786538055091408  0.18378289998477304  1.0000
  C   C23       1.0  0.804560588131027  0.7225301567855066  0.17238771931632077  1.0000
  C   C24       1.0  0.7923261544317357  0.7939057470900743  0.04974269371429551  1.0000
  C   C25       1.0  0.8045605260720847  0.7225300053588337  0.9372365498962685  1.0000
  C   C26       1.0  0.8287900741027476  0.5786537957985298  0.9462798036602149  1.0000
  C   C27       1.0  0.8407650326545165  0.5074061144389517  0.07009197066643247  1.0000
  S   S1        1.0  0.7615119281627206  0.9778358423190243  0.03667826138530583  1.0000
  C   C28       1.0  0.6701010454232218  0.9274543542586473  0.040329185808947836  1.0000
  H   H18       1.0  0.8378952562837383  0.5244152945570679  0.515391602244607  1.0000
  H   H19       1.0  0.7949356647129624  0.7796782542656817  0.25842816432494176  1.0000
  H   H20       1.0  0.7949355262431729  0.7796780464822783  0.8430778517493125  1.0000
  H   H21       1.0  0.8594417554284478  0.39641834671818477  0.07797518272282544  1.0000
  H   H22       1.0  0.8378939625059532  0.5244145458952708  0.6223760187480085  1.0000
  H   H23       1.0  0.6580683905175677  0.8632778254506744  0.9567870259656717  1.0000
  H   H24       1.0  0.6580686816099306  0.8632792833779458  0.13302171562051934  1.0000
  H   H25       1.0  0.6373444252434903  0.027040872527493313  0.03326682072291897  1.0000
  Zn  Zn1       1.0  0.7524308174322546  0.5786752972156154  0.5650863268830704  1.0000
  Zn  Zn2       1.0  0.9051427104757664  0.5786316048083773  0.5649758023996959  1.0000
  C   C29       1.0  0.8288176014796952  0.5729064637177408  0.8021601347503653  1.0000
  C   C30       1.0  0.8287575848297861  0.5844022581364372  0.3279021180410197  1.0000
  C   C31       1.0  0.8274536925070838  0.8421454358033034  0.5594654560604171  1.0000
  C   C32       1.0  0.8301214504600795  0.3151615527591525  0.5705968685665372  1.0000
  O   O2        1.0  0.8867000653613283  0.5863086163596065  0.37622791007299505  1.0000
  O   O3        1.0  0.8867799197607356  0.5709658556157707  0.7537500850855985  1.0000
  O   O4        1.0  0.8856777647771803  0.7883797307898839  0.5577724132699803  1.0000
  O   O5        1.0  0.8878021681824613  0.3688947515207123  0.572205484567047  1.0000
  O   O6        1.0  0.7697713076124778  0.7884121505197617  0.5578566447466042  1.0000
  O   O7        1.0  0.7708734538252685  0.5710000086538503  0.7538342447575381  1.0000
  O   O8        1.0  0.7707935997265952  0.5863427191238271  0.37631050891224405  1.0000
  O   O9        1.0  0.7718957025970681  0.3689288439661942  0.5722881807587472  1.0000
