data_image0
_chemical_formula_structural       NC9NC3OH6C6NO2H5C8H6Zn2C4O8
_chemical_formula_sum              "N3 C30 O11 H17 Zn2"
_cell_length_a       15.78231758774541
_cell_length_b       9.273392599741051
_cell_length_c       9.275144076552241
_cell_angle_alpha    86.08729211106984
_cell_angle_beta     90.54614249944106
_cell_angle_gamma    89.0365174922554

_space_group_name_H-M_alt    "P 1"
_space_group_IT_number       1

loop_
  _space_group_symop_operation_xyz
  'x, y, z'

loop_
  _atom_site_type_symbol
  _atom_site_label
  _atom_site_symmetry_multiplicity
  _atom_site_fract_x
  _atom_site_fract_y
  _atom_site_fract_z
  _atom_site_occupancy
  N   N1        1.0  0.7808839577185933  0.5586517974958003  0.41603871013538773  1.0000
  C   C1        1.0  0.7330327161421707  0.4676936958865854  0.4425711906505346  1.0000
  C   C2        1.0  0.673623423705901  0.35479258511575074  0.47550483715646386  1.0000
  C   C3        1.0  0.6943471004701276  0.21296998631240238  0.5167866641018364  1.0000
  C   C4        1.0  0.6181311528257852  0.1442377757913722  0.5368762009633545  1.0000
  C   C5        1.0  0.5555653866644248  0.24920304743597985  0.5063687430878563  1.0000
  C   C6        1.0  0.462620036951844  0.22979727782409418  0.5121109610669204  1.0000
  C   C7        1.0  0.4079840544049628  0.3487873021155112  0.4773437577735829  1.0000
  C   C8        1.0  0.31989702032286904  0.3328750912780192  0.4820601868174488  1.0000
  C   C9        1.0  0.26453857695863486  0.4553271287102467  0.44627226064243386  1.0000
  N   N2        1.0  0.220043394867068  0.5537627584547182  0.4175019561706326  1.0000
  C   C10       1.0  0.2857660180579846  0.1977957717979253  0.5215978205425533  1.0000
  C   C11       1.0  0.3394692488672766  0.07905178950443847  0.5562979797483047  1.0000
  C   C12       1.0  0.42737389562933287  0.09452685661660419  0.5517097068448682  1.0000
  O   O1        1.0  0.5910928420723047  0.373599789850914  0.47010526594395263  1.0000
  H   H1        1.0  0.7571650807425839  0.16514192759849866  0.5306519368618956  1.0000
  H   H2        1.0  0.6102446405565909  0.03122316771456577  0.5697895042494758  1.0000
  H   H3        1.0  0.43380223925192724  0.45390292793374615  0.446571227437069  1.0000
  H   H4        1.0  0.21775088555085612  0.18431893981600142  0.5255900349032112  1.0000
  H   H5        1.0  0.3129153682383098  0.9746547919105099  0.586860603264058  1.0000
  H   H6        1.0  0.4671645709014128  0.0004733236593628171  0.5792038335567502  1.0000
  C   C13       1.0  0.0030466689596520017  0.13264354479189078  0.41587251589042007  1.0000
  C   C14       1.0  0.9916402182841223  0.2151869443264818  0.2841631458793443  1.0000
  C   C15       1.0  0.972777905889535  0.14940493942377642  0.15720670870953884  1.0000
  C   C16       1.0  0.9647007083742475  0.9990875667187232  0.15841803783312702  1.0000
  C   C17       1.0  0.9774242742043051  0.9153540365710449  0.2891266514785331  1.0000
  C   C18       1.0  0.9978888964972484  0.9797598947349633  0.4176805694208663  1.0000
  N   N3        1.0  0.9445000488615478  0.9318731842331598  0.027230557345437  1.0000
  O   O2        1.0  0.9327832223606313  0.014197915840612028  0.8992233703874493  1.0000
  O   O3        1.0  0.9370389726872448  0.7980246205043705  0.027435814434263683  1.0000
  H   H7        1.0  0.9874430387383102  0.21179641381518885  0.769593730467276  1.0000
  H   H8        1.0  0.9953247668474032  0.3319582199410809  0.27991674960492063  1.0000
  H   H9        1.0  0.963656422899443  0.21672395860132565  0.058108580454107946  1.0000
  H   H10       1.0  0.9733360768085001  0.7988046475586564  0.29013907040561904  1.0000
  H   H11       1.0  0.9902742831525403  0.6834485802600904  0.6567495324756738  1.0000
  C   C19       1.0  0.9984897375561366  0.5532723976931135  0.993478107283429  1.0000
  C   C20       1.0  0.9426663433760513  0.6479541693921083  0.059468520535362224  1.0000
  C   C21       1.0  0.8935990199056129  0.7497067394988248  0.9765879521659364  1.0000
  C   C22       1.0  0.8994661199598817  0.7588579858765225  0.8261968816340782  1.0000
  C   C23       1.0  0.953530929562434  0.6640900242590164  0.7584445483479199  1.0000
  C   C24       1.0  0.0024458262460504954  0.5591311141960521  0.8400750533935071  1.0000
  C   C25       1.0  0.8491438830443294  0.8645892437618745  0.7409507608716792  1.0000
  C   C26       1.0  0.8070142021271441  0.9531111350142134  0.6695636264526399  1.0000
  H   H12       1.0  0.17580570948764213  0.3619679639549312  0.11226496252872732  1.0000
  H   H13       1.0  0.9384423943165231  0.6455766795395359  0.17611934603259205  1.0000
  H   H14       1.0  0.8516426572418884  0.8222880593425301  0.030041942453029154  1.0000
  H   H15       1.0  0.9559238541139833  0.6700564894374339  0.6413808244219918  1.0000
  H   H16       1.0  0.120023599327655  0.4257668602279028  0.5703680925776755  1.0000
  H   H17       1.0  0.7700330907827856  0.030814473520027533  0.6068990647184629  1.0000
  Zn  Zn1       1.0  0.9076159435930644  0.5572371312099054  0.4164692804442547  1.0000
  Zn  Zn2       1.0  0.09331150724008941  0.5551657340854039  0.4170831442635896  1.0000
  C   C27       1.0  0.0017311345130626155  0.5522775843761292  0.6800377954052661  1.0000
  C   C28       1.0  0.9991983336902075  0.5601270791958308  0.15351478137110752  1.0000
  C   C29       1.0  0.9988326197822796  0.8195971973131599  0.41159466411529233  1.0000
  C   C30       1.0  0.002096795966386898  0.2928057345623256  0.42195798560389663  1.0000
  O   O4        1.0  0.06990668198268501  0.5616351959113774  0.2074574958373434  1.0000
  O   O5        1.0  0.0719614270119417  0.5491962341809775  0.626560572103114  1.0000
  O   O6        1.0  0.06961989673809582  0.765060223314777  0.4097908443674223  1.0000
  O   O7        1.0  0.07224814832333792  0.3457712170545555  0.42422711530508006  1.0000
  O   O8        1.0  0.9286792391409886  0.7666316489491376  0.40932530918570387  1.0000
  O   O9        1.0  0.9310207585006112  0.550769392220197  0.6260949637615203  1.0000
  O   O10       1.0  0.9289660057352377  0.5632082916935626  0.20699015432005438  1.0000
  O   O11       1.0  0.9313074726402562  0.3473443032681475  0.42375988183868585  1.0000
