data_image0
_chemical_formula_structural       NC5NC3F3CH3C6NCOH7C9H10Zn2C4O8
_chemical_formula_sum              "N3 C29 F3 H20 O9 Zn2"
_cell_length_a       13.85151926108384
_cell_length_b       9.273730183620392
_cell_length_c       10.297187173949778
_cell_angle_alpha    85.71383111101245
_cell_angle_beta     89.97408904731064
_cell_angle_gamma    90.5942638072907

_space_group_name_H-M_alt    "P 1"
_space_group_IT_number       1

loop_
  _space_group_symop_operation_xyz
  'x, y, z'

loop_
  _atom_site_type_symbol
  _atom_site_label
  _atom_site_symmetry_multiplicity
  _atom_site_fract_x
  _atom_site_fract_y
  _atom_site_fract_z
  _atom_site_occupancy
  N   N1        1.0  0.9205207878251771  0.5781073999939359  0.5708120933839882  1.0000
  C   C1        1.0  0.8481093599149124  0.5690350780129458  0.6270788575204856  1.0000
  C   C2        1.0  0.7580238432952117  0.5577478653784342  0.6970827615928535  1.0000
  C   C3        1.0  0.6705846247182604  0.5669600819558587  0.6290498869805774  1.0000
  C   C4        1.0  0.5829718537061231  0.5577478522302026  0.6970827434881499  1.0000
  C   C5        1.0  0.49309010787934776  0.5690350941743638  0.6270789423204368  1.0000
  N   N2        1.0  0.4208426019169898  0.5781073621177582  0.5708121883185887  1.0000
  C   C6        1.0  0.5827820563250743  0.5383254463354445  0.8333048060086677  1.0000
  C   C7        1.0  0.6702078204097515  0.5259235492064813  0.9024675927121238  1.0000
  C   C8        1.0  0.6700504573885001  0.5103663122861746  0.04932743019465213  1.0000
  F   F1        1.0  0.750449823558062  0.4355572256108901  0.09565252688374692  1.0000
  F   F2        1.0  0.5885810086548913  0.43555719502333595  0.09565261628794494  1.0000
  F   F3        1.0  0.6709778100037623  0.6461881800002651  0.09624418556816482  1.0000
  C   C9        1.0  0.7578523824987059  0.538325351083528  0.8333048234655248  1.0000
  H   H1        1.0  0.6707256005535867  0.5821577992774238  0.5235823040897614  1.0000
  H   H2        1.0  0.5146054429201671  0.5331544773027512  0.8852422678728633  1.0000
  H   H3        1.0  0.8259221958900815  0.5331543963979055  0.8852422307049646  1.0000
  C   C10       1.0  0.167737518082207  0.15460664676878855  0.5698456673535479  1.0000
  C   C11       1.0  0.18193463647147146  0.2380777346396741  0.4514346160197714  1.0000
  C   C12       1.0  0.20355399475195404  0.17325458119852866  0.33649238772550455  1.0000
  C   C13       1.0  0.21403669848004683  0.022799813778987103  0.3408551161421276  1.0000
  C   C14       1.0  0.1987577745509319  0.9381585648673669  0.45692983479610483  1.0000
  C   C15       1.0  0.1736350423632924  0.0015970910112703676  0.5717898176681703  1.0000
  N   N3        1.0  0.21991217483874517  0.2630154994268348  0.218341965373092  1.0000
  C   C16       1.0  0.19583980451851346  0.22204326659757534  0.09073214812247121  1.0000
  O   O1        1.0  0.14621741250020226  0.11013963651686652  0.07495775041092222  1.0000
  H   H4        1.0  0.1827640814084519  0.2312797604797756  0.88905948716837  1.0000
  H   H5        1.0  0.1776404520987236  0.35490394902015066  0.44856971126216066  1.0000
  H   H6        1.0  0.23501504645595772  0.9702940696205063  0.2550108239854598  1.0000
  H   H7        1.0  0.20497031501572116  0.8218669597576248  0.456217453129409  1.0000
  H   H8        1.0  0.179615412930952  0.702808520362396  0.786581039656661  1.0000
  H   H9        1.0  0.24497676126733048  0.3687899079987671  0.22547685404932657  1.0000
  H   H10       1.0  0.21829038260674824  0.2906457427967115  0.006287872377479073  1.0000
  C   C17       1.0  0.17081353444203207  0.5780497171071797  0.18936444947689735  1.0000
  C   C18       1.0  0.07325320582011766  0.6176614027681036  0.18597345135222976  1.0000
  C   C19       1.0  0.023270172275049694  0.6379553950012984  0.06761973873905047  1.0000
  C   C20       1.0  0.07287501019237141  0.6178144039129378  0.9507510774184831  1.0000
  C   C21       1.0  0.1705590102823778  0.5781540054924162  0.9522709985175138  1.0000
  C   C22       1.0  0.2188903498851522  0.5585292382677629  0.07196725039489425  1.0000
  C   C23       1.0  0.9177516430208077  0.6807979690859391  0.07338430122188842  1.0000
  C   C24       1.0  0.8497597861892557  0.6227917351250007  0.972979307272888  1.0000
  C   C25       1.0  0.8795753225643915  0.7818948080342911  0.962245001549657  1.0000
  H   H11       1.0  0.20840934791285998  0.5627991519069636  0.5182085502764027  1.0000
  H   H12       1.0  0.0355896430691478  0.6329540480594127  0.27608669906760425  1.0000
  H   H13       1.0  0.03625653859365152  0.6326789970753173  0.8581780926026153  1.0000
  H   H14       1.0  0.29415999819898486  0.5279672732830158  0.07385612779097372  1.0000
  H   H15       1.0  0.3550527903396219  0.5032282264772943  0.7479265105572452  1.0000
  H   H16       1.0  0.8838364181943558  0.694569516256242  0.16949319026124154  1.0000
  H   H17       1.0  0.8820010516369772  0.5576992014305318  0.8983049203741639  1.0000
  H   H18       1.0  0.7745910217829006  0.6032781000382144  0.008053088792717487  1.0000
  H   H19       1.0  0.9299283682604705  0.8134485109289903  0.8810510388629685  1.0000
  H   H20       1.0  0.8218315683011463  0.8553703482308621  0.9910426379102989  1.0000
  Zn  Zn1       1.0  0.06490282669861602  0.5781035400650469  0.57081959913252  1.0000
  Zn  Zn2       1.0  0.27646046014956993  0.5780994604600329  0.570815246790148  1.0000
  C   C26       1.0  0.17056495434824837  0.5723890276073489  0.8080521348806523  1.0000
  C   C27       1.0  0.1708006553301736  0.5838157925371059  0.3335828426657969  1.0000
  C   C28       1.0  0.1725170219842734  0.8414971248880391  0.5662459827546927  1.0000
  C   C29       1.0  0.1688485034167717  0.3147059625898665  0.5753890600701466  1.0000
  O   O2        1.0  0.25108130852718524  0.5857431002706481  0.38198218673867873  1.0000
  O   O3        1.0  0.25085164237951774  0.5704575355392987  0.7596491110546817  1.0000
  O   O4        1.0  0.2524268789517734  0.7877657276353058  0.5643889358585008  1.0000
  O   O5        1.0  0.24950599986896818  0.368434918479285  0.577242264563818  1.0000
  O   O6        1.0  0.09185721478499341  0.7877680820487565  0.5643925813535061  1.0000
  O   O7        1.0  0.09028199029589068  0.5704616226222599  0.7596526912659542  1.0000
  O   O8        1.0  0.0905116566788984  0.5857471368845482  0.3819842050885325  1.0000
  O   O9        1.0  0.08893634791241835  0.3684389447915022  0.5772443802793701  1.0000
