data_image0
_chemical_formula_structural       NC9NC3OCH8C12NCOCH13C10NCOCH13Zn2C4O8
_chemical_formula_sum              "N4 C43 O11 H34 Zn2"
_cell_length_a       17.728193572023454
_cell_length_b       10.299155265289647
_cell_length_c       10.299158637457992
_cell_angle_alpha    85.56442242627145
_cell_angle_beta     90.68674526026633
_cell_angle_gamma    88.43175330785004

_space_group_name_H-M_alt    "P 1"
_space_group_IT_number       1

loop_
  _space_group_symop_operation_xyz
  'x, y, z'

loop_
  _atom_site_type_symbol
  _atom_site_label
  _atom_site_symmetry_multiplicity
  _atom_site_fract_x
  _atom_site_fract_y
  _atom_site_fract_z
  _atom_site_occupancy
  N   N1        1.0  0.7105569809202952  0.3865322344018176  0.5847777035057244  1.0000
  C   C1        1.0  0.6499476342216569  0.3491057735785875  0.5977936160717912  1.0000
  C   C2        1.0  0.5744973242505608  0.3025796948915296  0.6139930713403017  1.0000
  C   C3        1.0  0.5626157087422905  0.17453448207732425  0.6234494848580037  1.0000
  C   C4        1.0  0.48590959999730354  0.12508423182706596  0.6384142364283216  1.0000
  C   C5        1.0  0.4277462534976814  0.20776702313355622  0.6558611467208806  1.0000
  C   C6        1.0  0.3496999726307955  0.1627230699575046  0.6776083135934285  1.0000
  C   C7        1.0  0.2883528565481178  0.24818622544046898  0.6421222206035104  1.0000
  C   C8        1.0  0.21407997945493143  0.20888739175169757  0.6622815537059306  1.0000
  C   C9        1.0  0.15175412658163961  0.2968868328531855  0.6247203726177051  1.0000
  N   N2        1.0  0.10165755091061475  0.3676298572585561  0.5945247336648074  1.0000
  C   C10       1.0  0.2005225781809373  0.08400591178153016  0.7189811132429644  1.0000
  C   C11       1.0  0.2609707210130531  0.9988608295291608  0.755875697627719  1.0000
  C   C12       1.0  0.3351400109820224  0.03767004205226243  0.7358460875138382  1.0000
  O   O1        1.0  0.4410836235088867  0.3415632308376959  0.6545282500318408  1.0000
  C   C13       1.0  0.5088087588065351  0.3989312190044744  0.6059021013643626  1.0000
  H   H1        1.0  0.609553196728139  0.10506728569056589  0.6213677046045307  1.0000
  H   H2        1.0  0.47827247855550653  0.021425759939106778  0.6364606248243545  1.0000
  H   H3        1.0  0.2982380823710539  0.3450040000336449  0.5976680440065016  1.0000
  H   H4        1.0  0.1433095572206988  0.05272070799689144  0.7351301999095805  1.0000
  H   H5        1.0  0.250348616480607  0.9027021374828341  0.8007908317653023  1.0000
  H   H6        1.0  0.380674780051047  0.9704453369205073  0.7682854515021194  1.0000
  H   H7        1.0  0.4993531211803184  0.43482736672601835  0.5023646101610288  1.0000
  H   H8        1.0  0.5216682131105913  0.4833439446692768  0.6624615024410074  1.0000
  C   C14       1.0  0.9061951576478793  0.995679359694972  0.5897721175303163  1.0000
  C   C15       1.0  0.8933291230067633  0.005965170113792387  0.45452549439845336  1.0000
  C   C16       1.0  0.886732706478731  0.8940461093307985  0.38583306185987687  1.0000
  C   C17       1.0  0.8931487391267637  0.7707140363360541  0.45421321224670846  1.0000
  C   C18       1.0  0.906026651350863  0.758472439884007  0.589541722435059  1.0000
  C   C19       1.0  0.9124739367740543  0.8714757859299643  0.6564881198889387  1.0000
  C   C20       1.0  0.8731229269692599  0.9059008790539055  0.24275848874571415  1.0000
  C   C21       1.0  0.9114098754159256  0.9981395390509264  0.16229460589736577  1.0000
  C   C22       1.0  0.8986083857557773  0.009164480980341951  0.027652053830759638  1.0000
  C   C23       1.0  0.8477332490228253  0.9272660895656001  0.9706332536081415  1.0000
  C   C24       1.0  0.8085245077692959  0.8368882482535295  0.05100600362636599  1.0000
  C   C25       1.0  0.8213534900405935  0.8256059481577458  0.18561190518182857  1.0000
  N   N3        1.0  0.832503811122492  0.9382063168929219  0.8326918449852072  1.0000
  C   C26       1.0  0.8876245659398662  0.9724524815796692  0.7358472661467625  1.0000
  O   O2        1.0  0.9568504479990315  0.9716484834490279  0.7654310966456181  1.0000
  C   C27       1.0  0.8635753389986713  2.4460599419961254e-05  0.5967072117853931  1.0000
  H   H9        1.0  0.911167410327331  0.319198050220314  0.6417886433718312  1.0000
  H   H10       1.0  0.8873680708219734  0.10128449541831322  0.4025669923775126  1.0000
  H   H11       1.0  0.8890989964994731  0.6840965879119717  0.4014835281400552  1.0000
  H   H12       1.0  0.9224003187331008  0.8628271373938933  0.7608062844990902  1.0000
  H   H13       1.0  0.9307849447653034  0.5280618735220289  0.8448476498457247  1.0000
  H   H14       1.0  0.9516996771789766  0.06125138738128766  0.20339126447368727  1.0000
  H   H15       1.0  0.9275703347587858  0.08320439206941943  0.968793063393421  1.0000
  H   H16       1.0  0.7681624444456253  0.7744837104879136  0.009040503149277955  1.0000
  H   H17       1.0  0.7899664768533113  0.7552998146147629  0.24524341030374777  1.0000
  H   H18       1.0  0.7793569775155329  0.9118980670001637  0.8002936916798268  1.0000
  H   H19       1.0  0.8091013275265834  0.05610173168660548  0.5908959412087693  1.0000
  H   H20       1.0  0.8566005352565866  0.9067398151990681  0.5513090528932261  1.0000
  H   H21       1.0  0.9065464349497661  0.05802404974282172  0.5423825278015264  1.0000
  C   C28       1.0  0.9061816739579445  0.3769344838146227  0.20828564024382756  1.0000
  C   C29       1.0  0.9079048658538312  0.5135646845341517  0.19697450347334855  1.0000
  C   C30       1.0  0.9087192876133003  0.5829808185515133  0.07408044996382168  1.0000
  C   C31       1.0  0.9077603216629437  0.5139315672009628  0.9616593158336214  1.0000
  C   C32       1.0  0.9060401107091445  0.377217307244335  0.9710282456261483  1.0000
  C   C33       1.0  0.9052646785341041  0.30955922934816194  0.09472939493895227  1.0000
  C   C34       1.0  0.9105431175570032  0.727518761392631  0.06308821633303885  1.0000
  C   C35       1.0  0.9568467785036052  0.7931198256969636  0.14678946583596497  1.0000
  C   C36       1.0  0.9585692489090796  0.9291373556026324  0.13631449027167997  1.0000
  C   C37       1.0  0.8656068428468873  0.8010695898483011  0.9693196828074367  1.0000
  N   N4        1.0  0.9141816487103457  0.14232978785395467  0.029760745620458495  1.0000
  C   C38       1.0  0.9788206575984741  0.21819950318816872  0.05457982582159393  1.0000
  O   O3        1.0  0.04389690202535747  0.16563792545830536  0.06473244643752785  1.0000
  C   C39       1.0  0.9699366835298369  0.36245478229453587  0.05891833128494173  1.0000
  H   H22       1.0  0.9055425040522662  0.32437765966592425  0.5401127504141936  1.0000
  H   H23       1.0  0.9075633043465456  0.5664023902624684  0.28390118348378857  1.0000
  H   H24       1.0  0.9093846727580032  0.5668706278740729  0.8667124687274397  1.0000
  H   H25       1.0  0.9039381237242267  0.20417303852725086  0.10273910623971871  1.0000
  H   H26       1.0  0.903251445295179  0.1191387723062707  0.7814308166118749  1.0000
  H   H27       1.0  0.9921783963247369  0.7391812567485352  0.21987803021664765  1.0000
  H   H28       1.0  0.9933815994027921  0.97679810185499  0.204198971130249  1.0000
  H   H29       1.0  0.8319880129231721  0.9918733179004366  0.8865859277818714  1.0000
  H   H30       1.0  0.8283221696852123  0.7534815504714645  0.905057842326328  1.0000
  H   H31       1.0  0.8652521997032219  0.19215315451769488  0.9935805167979983  1.0000
  H   H32       1.0  0.9168677644934236  0.386735972608641  0.10900710715007622  1.0000
  H   H33       1.0  0.9678974121752423  0.4092241742586573  0.9581348742773836  1.0000
  H   H34       1.0  0.018073156566850376  0.4008989776905634  0.11276066276672458  1.0000
  Zn  Zn1       1.0  0.8234201680200872  0.38107394880182716  0.5875979866721361  1.0000
  Zn  Zn2       1.0  0.9887943897751506  0.37307754217600836  0.5917150914354996  1.0000
  C   C40       1.0  0.9060663265410699  0.3719897882533538  0.8268550563851367  1.0000
  C   C41       1.0  0.9061500367498004  0.38216325421088837  0.3524581936534581  1.0000
  C   C42       1.0  0.906055557855462  0.6142865527925097  0.5844099835659402  1.0000
  C   C43       1.0  0.9061607493366588  0.1398649319900593  0.594903334778121  1.0000
  O   O4        1.0  0.9688980755666842  0.3808778164546649  0.40240624112281687  1.0000
  O   O5        1.0  0.9688334958231265  0.36720515845997315  0.7800314226154137  1.0000
  O   O6        1.0  0.9688239537059858  0.5628629014946196  0.5842552895044555  1.0000
  O   O7        1.0  0.9689075612688257  0.18522008540356327  0.5981822754508059  1.0000
  O   O8        1.0  0.8433069400923074  0.5689314083044645  0.5811308012450325  1.0000
  O   O9        1.0  0.8433164818740939  0.3732752256816841  0.7769068646387267  1.0000
  O   O10       1.0  0.8433810619676397  0.3869478378351967  0.39928012175065014  1.0000
  O   O11       1.0  0.8433905476506757  0.19129009753074278  0.5950562534498105  1.0000
