data_image0
_chemical_formula_structural       NC5OC5NC4H8C7NH5C6NCOH5Zn2C4O8
_chemical_formula_sum              "N4 C32 O10 H18 Zn2"
_cell_length_a       19.189071930511275
_cell_length_b       9.275154477615127
_cell_length_c       9.27373355559583
_cell_angle_alpha    86.40037001266045
_cell_angle_beta     89.98918376362916
_cell_angle_gamma    89.42495848434854

_space_group_name_H-M_alt    "P 1"
_space_group_IT_number       1

loop_
  _space_group_symop_operation_xyz
  'x, y, z'

loop_
  _atom_site_type_symbol
  _atom_site_label
  _atom_site_symmetry_multiplicity
  _atom_site_fract_x
  _atom_site_fract_y
  _atom_site_fract_z
  _atom_site_occupancy
  N   N1        1.0  0.648611867540127  0.5607179058596368  0.41594912684151275  1.0000
  C   C1        1.0  0.5939094943692865  0.6117018258043316  0.3958521934144068  1.0000
  C   C2        1.0  0.5258668053954356  0.6751173227391747  0.3708546249539193  1.0000
  C   C3        1.0  0.5156522386697847  0.7815173380104707  0.2587275335095316  1.0000
  C   C4        1.0  0.4495557400892822  0.8431999734697216  0.23458531826548157  1.0000
  C   C5        1.0  0.3930155187936223  0.7983515008707356  0.32106562915950354  1.0000
  O   O1        1.0  0.3277286736762043  0.8640390634198073  0.2944257961317644  1.0000
  C   C6        1.0  0.2630754609061108  0.7981343326635266  0.3204386277708158  1.0000
  C   C7        1.0  0.20590286888646375  0.8846366767192967  0.3543631028442702  1.0000
  C   C8        1.0  0.14039879491728746  0.823281113996746  0.37945065578427006  1.0000
  C   C9        1.0  0.1314122497498849  0.6746081257286722  0.36938312446850174  1.0000
  C   C10       1.0  0.0639790160448436  0.6114212708871714  0.39504133390990237  1.0000
  N   N2        1.0  0.0097666760116375  0.5606212398992119  0.41566987727396865  1.0000
  C   C11       1.0  0.1881131476155581  0.5877406843695965  0.33332934238597955  1.0000
  C   C12       1.0  0.2536081544917625  0.6491405553036673  0.30829039048909923  1.0000
  C   C13       1.0  0.4037075408164812  0.6929728974474783  0.43499280335420143  1.0000
  C   C14       1.0  0.4697951509108971  0.6312864361417998  0.45920311888339843  1.0000
  H   H1        1.0  0.5587254244472594  0.816876345932747  0.19018288950277507  1.0000
  H   H2        1.0  0.4421190596306293  0.9255751155847027  0.14782919963800722  1.0000
  H   H3        1.0  0.2123889299529839  0.99970737612988  0.36211762907532674  1.0000
  H   H4        1.0  0.09682585956853113  0.8917006778244381  0.40647179593870275  1.0000
  H   H5        1.0  0.18161968123703942  0.47282126484775855  0.3238276932395654  1.0000
  H   H6        1.0  0.2964707175258642  0.5809120386888684  0.2774815589067128  1.0000
  H   H7        1.0  0.3613318768907943  0.6600604725097128  0.5062696744450224  1.0000
  H   H8        1.0  0.47723287345405224  0.5500876397855032  0.5471751973157906  1.0000
  C   C15       1.0  0.8312091433147658  0.13726185567073257  0.4141401053214222  1.0000
  C   C16       1.0  0.8120752557977237  0.21908211963383592  0.28707739371941376  1.0000
  C   C17       1.0  0.787273318695689  0.15175864024785524  0.16675054994490868  1.0000
  C   C18       1.0  0.7811969182711852  0.0016967785892525434  0.17206939816978917  1.0000
  C   C19       1.0  0.8009765664568075  0.9186375769054278  0.2962349798653767  1.0000
  C   C20       1.0  0.8271761470055964  0.9840663885184692  0.41749134069480687  1.0000
  C   C21       1.0  0.7672122329273096  0.2371445255539093  0.03815693996489267  1.0000
  N   N3        1.0  0.7510886844484294  0.30577922339187724  0.9348006161686301  1.0000
  H   H9        1.0  0.8447365886836492  0.21772648187402874  0.7679114736809662  1.0000
  H   H10       1.0  0.8149210641036972  0.3359948588026951  0.28279873634709607  1.0000
  H   H11       1.0  0.7617637471452805  0.9485826571681598  0.07959094873047112  1.0000
  H   H12       1.0  0.797317202072949  0.802169598476853  0.2961109690041621  1.0000
  H   H13       1.0  0.8392417403560989  0.6878371389519664  0.6545258992436247  1.0000
  C   C22       1.0  0.8291744023937785  0.5561213788399605  0.99257074931464  1.0000
  C   C23       1.0  0.7651636528668461  0.5478628672379655  0.06653899310236078  1.0000
  C   C24       1.0  0.7017310109652917  0.5512888680111931  0.9916520409325628  1.0000
  C   C25       1.0  0.7022682218633486  0.5676601618793722  0.840368619571104  1.0000
  C   C26       1.0  0.765241358158991  0.5737674293565911  0.765188679033443  1.0000
  C   C27       1.0  0.8292108816819538  0.5652068217057025  0.8390606754275769  1.0000
  N   N4        1.0  0.6374983915805363  0.5462490212640322  0.07169620525874998  1.0000
  C   C28       1.0  0.5750301551870981  0.47987016564839546  0.024699578240162  1.0000
  O   O2        1.0  0.5750271097413088  0.40356672330431226  0.9170470626702106  1.0000
  H   H14       1.0  0.9929155381516729  0.656195005664306  0.08915341213860194  1.0000
  H   H15       1.0  0.6540941516342866  0.5772729277730779  0.7798292169030301  1.0000
  H   H16       1.0  0.940071836886857  0.6265138033517315  0.5541112157727586  1.0000
  H   H17       1.0  0.6370662319097373  0.5845864275705888  0.17526711456499133  1.0000
  H   H18       1.0  0.5273415222137136  0.4919749940305812  0.0852051070741271  1.0000
  Zn  Zn1       1.0  0.7528333713490191  0.5606862529761736  0.4158768431492219  1.0000
  Zn  Zn2       1.0  0.9055452460548219  0.5606412682938813  0.41575389878168734  1.0000
  C   C29       1.0  0.8292297890024729  0.5577455134951076  0.6790332048843477  1.0000
  C   C30       1.0  0.8291504873520227  0.5635838280491879  0.15259768436644872  1.0000
  C   C31       1.0  0.827934631605775  0.8239406429170069  0.4111144240443478  1.0000
  C   C32       1.0  0.8304456008923998  0.29738696717025626  0.420516535234257  1.0000
  O   O3        1.0  0.8870958517899475  0.5660649324368352  0.2062575039936665  1.0000
  O   O4        1.0  0.8871892091165015  0.5552291746025353  0.6252796541262855  1.0000
  O   O5        1.0  0.8861425719647351  0.7701851244229929  0.40893334959017347  1.0000
  O   O6        1.0  0.8881424367777152  0.35110899178613275  0.4226037005457017  1.0000
  O   O7        1.0  0.77023612851305  0.770218529500762  0.40902704141958757  1.0000
  O   O8        1.0  0.7712827574080616  0.5552643111541762  0.6253732759622714  1.0000
  O   O9        1.0  0.7711894002924696  0.5661000001450116  0.20634939278120878  1.0000
  O   O10       1.0  0.77223598533116  0.35114405034139284  0.422695697351702  1.0000
