data_image0
_chemical_formula_structural       NC9NC3SH6C7F3H5C7OCH10Zn2C4O8
_chemical_formula_sum              "N2 C31 S1 H21 F3 O9 Zn2"
_cell_length_a       16.77567553997237
_cell_length_b       9.272718291674593
_cell_length_c       10.300835455316065
_cell_angle_alpha    86.00164586726821
_cell_angle_beta     90.414716717709
_cell_angle_gamma    90.46558260785916

_space_group_name_H-M_alt    "P 1"
_space_group_IT_number       1

loop_
  _space_group_symop_operation_xyz
  'x, y, z'

loop_
  _atom_site_type_symbol
  _atom_site_label
  _atom_site_symmetry_multiplicity
  _atom_site_fract_x
  _atom_site_fract_y
  _atom_site_fract_z
  _atom_site_occupancy
  N   N1        1.0  0.7438786130969242  0.5979961491651657  0.5855274417385155  1.0000
  C   C1        1.0  0.6889147578447814  0.6527642515229086  0.6274987513944553  1.0000
  C   C2        1.0  0.6207038282358185  0.7207278453875119  0.6795819393491461  1.0000
  C   C3        1.0  0.6224592062222271  0.818538543348377  0.775297415969676  1.0000
  C   C4        1.0  0.5466315470847233  0.8668049705848299  0.8071373601416774  1.0000
  C   C5        1.0  0.484858166771209  0.8067914913940989  0.7361186679765411  1.0000
  C   C6        1.0  0.39825163742435  0.8357278528092011  0.747167436943452  1.0000
  C   C7        1.0  0.3417834169887541  0.7473642985278579  0.6882799836371186  1.0000
  C   C8        1.0  0.2600354770448128  0.7740686423702103  0.6982569171087831  1.0000
  C   C9        1.0  0.2029115879384486  0.6827424123090058  0.6379539257347464  1.0000
  N   N2        1.0  0.1570009529210705  0.6093292107574209  0.5894792276542687  1.0000
  C   C10       1.0  0.2339244764901721  0.8894845428200082  0.7669625950663457  1.0000
  C   C11       1.0  0.28930023018314643  0.9780242504245505  0.8253897119726941  1.0000
  C   C12       1.0  0.37088893039758636  0.9517232168797268  0.8157101127031453  1.0000
  S   S1        1.0  0.5258844914711132  0.6934401414338444  0.6342409130337643  1.0000
  H   H1        1.0  0.6767273006764488  0.8539190140076536  0.8213039364742428  1.0000
  H   H2        1.0  0.5380740931987643  0.9421991694333562  0.8811309503265436  1.0000
  H   H3        1.0  0.3609381055949578  0.6571038545397823  0.6352168018231865  1.0000
  H   H4        1.0  0.1708538159114013  0.9110873297041711  0.7751982142785592  1.0000
  H   H5        1.0  0.2689675954237474  0.06760577104278598  0.8781307848583104  1.0000
  H   H6        1.0  0.4120457059566996  0.023490757686105226  0.8609574089243686  1.0000
  C   C13       1.0  0.9521790589173499  0.18032702975057235  0.5846516424657651  1.0000
  C   C14       1.0  0.9035710524471056  0.2602844854041137  0.4944513479831316  1.0000
  C   C15       1.0  0.8493245959530454  0.19124543024897522  0.41444251425549505  1.0000
  C   C16       1.0  0.8457982710705567  0.03986185773688611  0.42200013701373734  1.0000
  C   C17       1.0  0.8944653354237818  0.9589462767304957  0.5093912292455454  1.0000
  C   C18       1.0  0.948708168381458  0.026987467688970975  0.590366327509275  1.0000
  C   C19       1.0  0.7992650745751335  0.27875839615298675  0.3159676075155302  1.0000
  F   F1        1.0  0.7787908946958316  0.4096273870814953  0.362962496743102  1.0000
  F   F2        1.0  0.7296759592755679  0.2054423772890719  0.288173396991086  1.0000
  F   F3        1.0  0.8422457450047699  0.30469210150220416  0.20263781573313788  1.0000
  H   H7        1.0  0.04688192079051957  0.2616859730011236  0.8657853546682599  1.0000
  H   H8        1.0  0.9067517800404853  0.3773391089171681  0.48843829631398217  1.0000
  H   H9        1.0  0.8059420354129125  0.9836607718425084  0.35917805368486944  1.0000
  H   H10       1.0  0.8912121837768107  0.8420883671586749  0.5111071380313763  1.0000
  H   H11       1.0  0.11986367868424443  0.9158068326669897  0.7482864141686113  1.0000
  C   C20       1.0  0.9503714896724053  0.6035817133929158  0.2061912353379307  1.0000
  C   C21       1.0  0.02323588947560529  0.6793426006397972  0.20145256308521708  1.0000
  C   C22       1.0  0.059466202772883614  0.7190143941361704  0.08184848550539979  1.0000
  C   C23       1.0  0.023425492825855487  0.679539389681816  0.9661568923375564  1.0000
  C   C24       1.0  0.9505157669753662  0.6037327738736391  0.9688267178642036  1.0000
  C   C25       1.0  0.9143267644519141  0.5665060495487892  0.0892836734670599  1.0000
  C   C26       1.0  0.13855473421343678  0.7963319816472798  0.07814987473111577  1.0000
  O   O1        1.0  0.19990702027152563  0.69278001864856  0.08553047950722935  1.0000
  C   C27       1.0  0.27450133247047637  0.7640257425640112  0.08217386595765497  1.0000
  H   H12       1.0  0.9229152509305034  0.5730837015931791  0.535503075069659  1.0000
  H   H13       1.0  0.05211616105618844  0.7077800775718516  0.2906549873737185  1.0000
  H   H14       1.0  0.052435802367091444  0.708113272664604  0.8741866324960541  1.0000
  H   H15       1.0  0.8581344561632959  0.5080651608415088  0.09217597011494161  1.0000
  H   H16       1.0  0.8134254632785725  0.45930508825986555  0.7667077059076072  1.0000
  H   H17       1.0  0.14248472190501582  0.8668135358208863  0.1613478044815366  1.0000
  H   H18       1.0  0.14266933441522214  0.8668405911685944  0.9862356717950118  1.0000
  H   H19       1.0  0.32206961468480433  0.6813780213331807  0.08803656460421072  1.0000
  H   H20       1.0  0.2822906304924737  0.83118471883091  0.16684569186930287  1.0000
  H   H21       1.0  0.28248502515392776  0.8312501904282013  0.989336943569981  1.0000
  Zn  Zn1       1.0  0.8630968165088656  0.6012627785167787  0.5866753223786861  1.0000
  Zn  Zn2       1.0  0.03778279477198043  0.6060508233359605  0.5883419313206282  1.0000
  C   C28       1.0  0.9505102467323483  0.5979611815233863  0.8246334811063708  1.0000
  C   C29       1.0  0.950371264681339  0.6093542915775365  0.3503839305187577  1.0000
  C   C30       1.0  0.9493591698379985  0.8669494907740531  0.5841115803056866  1.0000
  C   C31       1.0  0.9515222890809978  0.34036424870433857  0.5909058882897094  1.0000
  O   O2        1.0  0.01666363332208465  0.6131023703905696  0.3994087431959792  1.0000
  O   O3        1.0  0.016800498022536685  0.5978460303324789  0.7768732049170696  1.0000
  O   O4        1.0  0.01587009547489293  0.815057467646792  0.582650069879422  1.0000
  O   O5        1.0  0.01759397620054348  0.3958909417356766  0.5936317803729332  1.0000
  O   O6        1.0  0.8832855754685435  0.8114226584847062  0.5813854727508297  1.0000
  O   O7        1.0  0.8842159708991195  0.5942129531605673  0.7756085502426591  1.0000
  O   O8        1.0  0.884079106162309  0.6094692426747874  0.39814252699187896  1.0000
  O   O9        1.0  0.8850094490981937  0.3922578037281177  0.5923656614539756  1.0000
