data_image0
_chemical_formula_structural       NC9NC3OH6C6ClH3C7F3H5Zn2C4O8
_chemical_formula_sum              "N2 C29 O9 H14 Cl1 F3 Zn2"
_cell_length_a       15.78231758774541
_cell_length_b       10.30297070629231
_cell_length_c       9.272291681409872
_cell_angle_alpha    86.0604796427724
_cell_angle_beta     90.4979467289142
_cell_angle_gamma    89.63144908567993

_space_group_name_H-M_alt    "P 1"
_space_group_IT_number       1

loop_
  _space_group_symop_operation_xyz
  'x, y, z'

loop_
  _atom_site_type_symbol
  _atom_site_label
  _atom_site_symmetry_multiplicity
  _atom_site_fract_x
  _atom_site_fract_y
  _atom_site_fract_z
  _atom_site_occupancy
  N   N1        1.0  0.7911704442822011  0.4003916583893448  0.4124326261502116  1.0000
  C   C1        1.0  0.7427519804216706  0.31856356937702346  0.4391639480164393  1.0000
  C   C2        1.0  0.682638627076259  0.21699502384311176  0.47234440503451647  1.0000
  C   C3        1.0  0.702477930389115  0.08940787295131614  0.5139362515458232  1.0000
  C   C4        1.0  0.6258333427209548  0.027574793078081423  0.5341760493657608  1.0000
  C   C5        1.0  0.5639220930715633  0.12200424574722013  0.5034391489170607  1.0000
  C   C6        1.0  0.4708556864479449  0.10454648076360698  0.5092238037425686  1.0000
  C   C7        1.0  0.41696176459075524  0.2115926669141597  0.4741964690017231  1.0000
  C   C8        1.0  0.3287754630910988  0.1972777804050838  0.4789476965236655  1.0000
  C   C9        1.0  0.27418067526389445  0.30743845919730517  0.4428920687660536  1.0000
  N   N2        1.0  0.23029937435593043  0.3959934210951371  0.41390656652964264  1.0000
  C   C10       1.0  0.29380202722922755  0.07575740217489768  0.5187806477071241  1.0000
  C   C11       1.0  0.3467647293158252  0.968932568875266  0.5537404013256213  1.0000
  C   C12       1.0  0.43476591710906604  0.9828541914353266  0.5491182856865162  1.0000
  O   O1        1.0  0.6002252853400427  0.23391457468041743  0.46690373505929617  1.0000
  H   H1        1.0  0.7649976941465091  0.046380466581804836  0.5279060649258707  1.0000
  H   H2        1.0  0.6172420885816166  0.9259040570319572  0.567336401870771  1.0000
  H   H3        1.0  0.44343551456047353  0.306157027471363  0.4431941284736054  1.0000
  H   H4        1.0  0.2257028214607604  0.06363341874709903  0.5228023341905279  1.0000
  H   H5        1.0  0.31955976513142403  0.8750147030452075  0.5845312640070436  1.0000
  H   H6        1.0  0.47397003727385734  0.8982414722037407  0.5768180309311037  1.0000
  C   C13       1.0  0.010738964249955572  0.01694510912744864  0.4131758188331547  1.0000
  C   C14       1.0  0.09835106487690964  0.01314316872800392  0.4412383861156708  1.0000
  C   C15       1.0  0.1418218503796097  0.8942999026780611  0.45516218222281224  1.0000
  C   C16       1.0  0.09835106391481149  0.7780351995339091  0.44123831830987587  1.0000
  C   C17       1.0  0.010738973640427077  0.7794300514958473  0.41317590139317634  1.0000
  C   C18       1.0  0.9673599926242779  0.8994741582446232  0.3992813784444418  1.0000
  Cl  Cl1       1.0  0.2512702377536409  0.8910538894472259  0.49021891542203666  1.0000
  H   H7        1.0  0.13319652599916132  0.10215630817279919  0.4523994273507652  1.0000
  H   H8        1.0  0.1331964920539166  0.6869551148691742  0.4523993236571975  1.0000
  H   H9        1.0  0.899790881723453  0.9014780025684646  0.3776386385022713  1.0000
  C   C19       1.0  0.008955476145303006  0.39487286831431523  0.9898091381247968  1.0000
  C   C20       1.0  0.06594213829394108  0.31259484131228676  0.07021978434914478  1.0000
  C   C21       1.0  0.1275331207794682  0.24190408628128623  0.0016294902822688907  1.0000
  C   C22       1.0  0.13460264866132798  0.2531519675623048  0.8507608795360642  1.0000
  C   C23       1.0  0.07592764721204598  0.33114582293383465  0.7691743688274244  1.0000
  C   C24       1.0  0.0125224660961194  0.40150229086898515  0.8365424915051927  1.0000
  C   C25       1.0  0.19965457278742504  0.17387353856382637  0.7763938902870628  1.0000
  F   F1        1.0  0.27060263780852245  0.1512417907776964  0.8635511679038954  1.0000
  F   F2        1.0  0.2250158815281661  0.23859001769222668  0.6484065895564358  1.0000
  F   F3        1.0  0.16474428763935922  0.055917064071019804  0.7463176534027243  1.0000
  H   H10       1.0  0.889633702632228  0.6584145528244829  0.06949928543644093  1.0000
  H   H11       1.0  0.0639864876536933  0.30486338350571685  0.18725990746038135  1.0000
  H   H12       1.0  0.17021766739988053  0.17914815484748314  0.06698609865600402  1.0000
  H   H13       1.0  0.07834346004166431  0.33458461714222754  0.6521946844068229  1.0000
  H   H14       1.0  0.8204989004803863  0.5277957631084291  0.7225556537933602  1.0000
  Zn  Zn1       1.0  0.9178935991930569  0.3991190193714891  0.4128662921799844  1.0000
  Zn  Zn2       1.0  0.10357624060011217  0.39725555629112375  0.41348468592760984  1.0000
  C   C26       1.0  0.011846347725277918  0.3950771477071182  0.6764917813612761  1.0000
  C   C27       1.0  0.009625520312727566  0.40129904681207546  0.1498593450027612  1.0000
  C   C28       1.0  0.010710422729819372  0.6352592004112498  0.40743074783153155  1.0000
  C   C29       1.0  0.010761382271422974  0.16111543554000796  0.4189204551848775  1.0000
  O   O2        1.0  0.0803159879768014  0.40274289255552276  0.20380833371191232  1.0000
  O   O3        1.0  0.08208470673694168  0.39221799394352097  0.6230117241825083  1.0000
  O   O4        1.0  0.0811664893426165  0.5861680602887146  0.4057430327922352  1.0000
  O   O5        1.0  0.08123414155483849  0.20879283528712755  0.42107691679323644  1.0000
  O   O6        1.0  0.9402356348739258  0.5875817410127473  0.40527406109574704  1.0000
  O   O7        1.0  0.9411538519406092  0.39363323387275284  0.6225426756150378  1.0000
  O   O8        1.0  0.9393851259348093  0.4041580736716186  0.20333755179661744  1.0000
  O   O9        1.0  0.9403032799647298  0.21020800796368766  0.4206062429682804  1.0000
