data_image0
_chemical_formula_structural       NC5NC3BrH3C9H8C6OCH7Zn2C4O8
_chemical_formula_sum              "N2 C28 Br1 H18 O9 Zn2"
_cell_length_a       13.839083392302014
_cell_length_b       9.275152443626249
_cell_length_c       9.273891588657152
_cell_angle_alpha    85.88202133130156
_cell_angle_beta     89.68090098130043
_cell_angle_gamma    90.59950914120974

_space_group_name_H-M_alt    "P 1"
_space_group_IT_number       1

loop_
  _space_group_symop_operation_xyz
  'x, y, z'

loop_
  _atom_site_type_symbol
  _atom_site_label
  _atom_site_symmetry_multiplicity
  _atom_site_fract_x
  _atom_site_fract_y
  _atom_site_fract_z
  _atom_site_occupancy
  N   N1        1.0  0.9263669558578916  0.565021779314618  0.40465994241447034  1.0000
  C   C1        1.0  0.8539272473487606  0.5013760076294587  0.4073436910444104  1.0000
  C   C2        1.0  0.7636739673678724  0.4221786607552649  0.4106830445473777  1.0000
  C   C3        1.0  0.6766408459437456  0.49838370574743124  0.407470055617021  1.0000
  C   C4        1.0  0.5880809132808351  0.42365148053273627  0.41062088690056897  1.0000
  C   C5        1.0  0.4988615213591883  0.5022080757954686  0.40730859002541253  1.0000
  N   N2        1.0  0.4271407361867024  0.5653614180560815  0.4046455659715858  1.0000
  C   C6        1.0  0.5864861293988197  0.2724026872645233  0.41699788968943463  1.0000
  C   C7        1.0  0.6730733723830945  0.19607636573412046  0.4202159005730097  1.0000
  C   C8        1.0  0.7618244279200773  0.2700944194072652  0.4170952006120576  1.0000
  Br  Br1       1.0  0.878471167881647  0.1599967534173663  0.4217372644455582  1.0000
  H   H1        1.0  0.6778215787509828  0.6155887179965995  0.40252821876022105  1.0000
  H   H2        1.0  0.5183874072437088  0.2135461766060722  0.4194791500349888  1.0000
  H   H3        1.0  0.6711311556202514  0.07912057303135554  0.4251468522734474  1.0000
  C   C9        1.0  0.17390256216971345  0.14157064060118785  0.4061243810486182  1.0000
  C   C10       1.0  0.13949512908977946  0.2231814060487045  0.283673578279912  1.0000
  C   C11       1.0  0.11407817313049473  0.1565968288205466  0.15892991492549302  1.0000
  C   C12       1.0  0.12267143706102224  0.007217729045083227  0.1541671635831221  1.0000
  C   C13       1.0  0.15519312379364034  0.9239081966854675  0.27558314413126905  1.0000
  C   C14       1.0  0.17961426085067322  0.9888015800181846  0.4031936207202822  1.0000
  C   C15       1.0  0.0969672629741174  0.9388847503031699  0.024987237183326405  1.0000
  C   C16       1.0  0.07544606018406963  0.8816384269909112  0.9168193027420646  1.0000
  C   C17       1.0  0.04933434345077602  0.812168138398366  0.7855764848005338  1.0000
  H   H4        1.0  0.3116902142782938  0.22591386788641676  0.6939796139469501  1.0000
  H   H5        1.0  0.13440671153402595  0.33969134872859597  0.2832203362897918  1.0000
  H   H6        1.0  0.08858661774562826  0.2219766839217432  0.06557996358260687  1.0000
  H   H7        1.0  0.1592762968437602  0.8075646415567715  0.2715621272300319  1.0000
  H   H8        1.0  0.26927362919759723  0.6953401593379167  0.6000770668452056  1.0000
  H   H9        1.0  0.0669495037258856  0.6955798008778374  0.7990415142266293  1.0000
  H   H10       1.0  0.9707599567133341  0.8245193046524939  0.7658464359675481  1.0000
  H   H11       1.0  0.09048448365761642  0.8637024322046557  0.6922772555269061  1.0000
  C   C18       1.0  0.1783156335119469  0.5613666211598598  0.9813968577189769  1.0000
  C   C19       1.0  0.25785878148622765  0.6223510842242534  0.04975752144691304  1.0000
  C   C20       1.0  0.33199351724185067  0.6941037989370467  0.9696976339862005  1.0000
  C   C21       1.0  0.3268509108544999  0.7052337016595795  0.8182186580067596  1.0000
  C   C22       1.0  0.24933194633232625  0.6433771407069384  0.7485187597650591  1.0000
  C   C23       1.0  0.17520115966323613  0.5690055122763731  0.8279211573311005  1.0000
  O   O1        1.0  0.4088858061049887  0.7533103403446217  0.04469742497689877  1.0000
  C   C24       1.0  0.48896884283172115  0.8292838913792281  0.977356155858809  1.0000
  H   H12       1.0  0.9478795014949285  0.47260904723102004  0.09272716733261532  1.0000
  H   H13       1.0  0.3828854103988197  0.7603571886977272  0.7531043767917018  1.0000
  H   H14       1.0  0.24860239064558165  0.6508114115319992  0.6314118876217734  1.0000
  H   H15       1.0  0.02148847011278643  0.5035311285038155  0.5527090261228231  1.0000
  H   H16       1.0  0.4636889230487806  0.926886173371349  0.91262363558997  1.0000
  H   H17       1.0  0.5287762804967922  0.7577167300663779  0.9071899927554234  1.0000
  H   H18       1.0  0.5386646033005789  0.8637985685449614  0.062079008053841145  1.0000
  Zn  Zn1       1.0  0.07087939778247132  0.56511599917873  0.4046641369873214  1.0000
  Zn  Zn2       1.0  0.28262816317231415  0.5652554810459067  0.4046532409711323  1.0000
  C   C25       1.0  0.1757489795124061  0.5618147661805548  0.6679298362380304  1.0000
  C   C26       1.0  0.17776090548264478  0.568558537007009  0.14138767677376451  1.0000
  C   C27       1.0  0.17855077968896005  0.8286050365133852  0.3980039637354589  1.0000
  C   C28       1.0  0.17495902108398642  0.30176653415061727  0.4113136321198694  1.0000
  O   O2        1.0  0.2579322441880585  0.5710188488537749  0.19507794397155687  1.0000
  O   O3        1.0  0.2562900483948205  0.5594592258329332  0.6142308880676817  1.0000
  O   O4        1.0  0.2585514486987901  0.7748957559608907  0.39626383111862684  1.0000
  O   O5        1.0  0.2556707720957545  0.3555823280224897  0.41304489281739065  1.0000
  O   O6        1.0  0.09783671659960791  0.7747891521560508  0.3962724851371946  1.0000
  O   O7        1.0  0.09557532825832049  0.5593543545055588  0.6142394592388476  1.0000
  O   O8        1.0  0.09721753015252044  0.57091391161886  0.19508478239658844  1.0000
  O   O9        1.0  0.09495605758912795  0.35547738144480645  0.4130518393417748  1.0000
