data_image0
_chemical_formula_structural       NC5OC5NC4H8C7NH5C6H6Zn2C4O8
_chemical_formula_sum              "N3 C31 O9 H19 Zn2"
_cell_length_a       19.189071930511275
_cell_length_b       9.275154477615127
_cell_length_c       10.68112160042829
_cell_angle_alpha    85.78691594316618
_cell_angle_beta     89.97791331363976
_cell_angle_gamma    89.42495848434854

_space_group_name_H-M_alt    "P 1"
_space_group_IT_number       1

loop_
  _space_group_symop_operation_xyz
  'x, y, z'

loop_
  _atom_site_type_symbol
  _atom_site_label
  _atom_site_symmetry_multiplicity
  _atom_site_fract_x
  _atom_site_fract_y
  _atom_site_fract_z
  _atom_site_occupancy
  N   N1        1.0  0.6486801944079619  0.5777196132119187  0.6236642705806696  1.0000
  C   C1        1.0  0.5939786881035445  0.6289192346764296  0.6062026296724237  1.0000
  C   C2        1.0  0.5259370773813995  0.6926030319232672  0.5844829695252887  1.0000
  C   C3        1.0  0.5157273471752614  0.8002065135903109  0.487059001137792  1.0000
  C   C4        1.0  0.4496318899514341  0.8621482688072474  0.46608253252131115  1.0000
  C   C5        1.0  0.3930879383912525  0.8163715981544809  0.5412227592599916  1.0000
  O   O1        1.0  0.3278022423634132  0.8823450875337617  0.5180761831978646  1.0000
  C   C6        1.0  0.26314790754898426  0.8161611595885359  0.5406779759905465  1.0000
  C   C7        1.0  0.20597385222208864  0.9022993903402126  0.5701539656425023  1.0000
  C   C8        1.0  0.140468696119792  0.8406745614971735  0.5919518106865649  1.0000
  C   C9        1.0  0.1314825852079386  0.6921096286104584  0.5832044255540971  1.0000
  C   C10       1.0  0.06404824475492903  0.6286473827600589  0.6054980974339079  1.0000
  N   N2        1.0  0.009835014924696898  0.5776259444528504  0.6234216387537832  1.0000
  C   C11       1.0  0.18818503822695  0.605629154527684  0.5518783429757446  1.0000
  C   C12       1.0  0.2536811251399044  0.6672977699445064  0.530122725964421  1.0000
  C   C13       1.0  0.4037750462493545  0.7097702079458044  0.640210767191385  1.0000
  C   C14       1.0  0.4698616120496399  0.6478238959582387  0.6612464061648409  1.0000
  H   H1        1.0  0.5588034895754755  0.8363012150422051  0.42750255367425843  1.0000
  H   H2        1.0  0.4421989516540665  0.9454545692359657  0.3907026644652758  1.0000
  H   H3        1.0  0.21245957880283073  0.01728685998344925  0.5768916479337545  1.0000
  H   H4        1.0  0.0968945952340549  0.9088041059037627  0.6154296934202415  1.0000
  H   H5        1.0  0.1816919816950696  0.49081171674196966  0.5436226364007775  1.0000
  H   H6        1.0  0.29654501709026715  0.5993999262565091  0.5033538283191381  1.0000
  H   H7        1.0  0.3613963078483252  0.676092764331046  0.7021411672977311  1.0000
  H   H8        1.0  0.477295539981979  0.5656808903230461  0.7376827863275297  1.0000
  C   C15       1.0  0.8312775482134118  0.1542829793530074  0.6220924643997077  1.0000
  C   C16       1.0  0.8121491414528589  0.23746701456528618  0.5116913700800236  1.0000
  C   C17       1.0  0.7873523945606152  0.171435009979227  0.4071428753938053  1.0000
  C   C18       1.0  0.7812757647115107  0.02131606082267634  0.4117642679104896  1.0000
  C   C19       1.0  0.8010500571062085  0.9369241829483423  0.5196481303214371  1.0000
  C   C20       1.0  0.8272444073511723  0.0010515432024922379  0.6250042553404158  1.0000
  C   C21       1.0  0.7672968555828994  0.2582010977530808  0.2954116280017258  1.0000
  N   N3        1.0  0.7511777653029289  0.3279451248430111  0.20560832451401212  1.0000
  H   H9        1.0  0.8447897339148568  0.23095055750918347  0.9294741164472496  1.0000
  H   H10       1.0  0.8149951343155671  0.35442567680501197  0.5079737691397697  1.0000
  H   H11       1.0  0.7618465825754163  0.9691945158146287  0.33141243305379553  1.0000
  H   H12       1.0  0.7973906980714672  0.8204575355353341  0.5195403808911523  1.0000
  H   H13       1.0  0.8392997763905568  0.7022781883518021  0.8309566887918601  1.0000
  C   C22       1.0  0.8292609913761302  0.5776672301941603  0.25580311288190494  1.0000
  C   C23       1.0  0.7797634127688167  0.4974937919367661  0.19413839882297454  1.0000
  C   C24       1.0  0.7797633688190617  0.4974938843960836  0.06325625921721101  1.0000
  C   C25       1.0  0.8292609362558728  0.577667300884134  0.991293548838085  1.0000
  C   C26       1.0  0.87871766226404  0.6577742993281359  0.05295748170593861  1.0000
  C   C27       1.0  0.8787176534545534  0.6577742769736752  0.18384978029809673  1.0000
  H   H14       1.0  0.8793161606025005  0.6587446055819527  0.5493058130844841  1.0000
  H   H15       1.0  0.7409648739650772  0.43465006186361727  0.24698536539037064  1.0000
  H   H16       1.0  0.7409648590876271  0.4346501297343061  0.018481336407988328  1.0000
  H   H17       1.0  0.9175212673112949  0.7206263105989912  0.00015487555717097167  1.0000
  H   H18       1.0  0.9175212324406935  0.7206262600657152  0.22857924289136733  1.0000
  H   H19       1.0  0.8793163804924765  0.6587441032043175  0.6873767854976132  1.0000
  Zn  Zn1       1.0  0.7529017013347578  0.5776887361534018  0.6236014653829074  1.0000
  Zn  Zn2       1.0  0.9056135813436754  0.577645071039939  0.6234946425979606  1.0000
  C   C28       1.0  0.8292867679323502  0.5719235246014409  0.8522503738348608  1.0000
  C   C29       1.0  0.8292301736903829  0.5834121012849476  0.3948458621479726  1.0000
  C   C30       1.0  0.828003167014955  0.8409942414070579  0.6194635379441014  1.0000
  C   C31       1.0  0.8305137307484372  0.3143396522706851  0.6276327588838573  1.0000
  O   O2        1.0  0.8871732235515061  0.5853172718024536  0.44146931865342937  1.0000
  O   O3        1.0  0.887248506666204  0.5699841256005227  0.8055454770761099  1.0000
  O   O4        1.0  0.8862112014529551  0.7872621325081604  0.6175684657903777  1.0000
  O   O5        1.0  0.8882104766054141  0.3680392752235707  0.6294462361149378  1.0000
  O   O6        1.0  0.7703047539599418  0.7872945319862408  0.6176498718958021  1.0000
  O   O7        1.0  0.771342050919455  0.5700182573037187  0.8056268223662797  1.0000
  O   O8        1.0  0.771266768090473  0.5853513532630918  0.4415491581482154  1.0000
  O   O9        1.0  0.7723040211906446  0.36807334637192446  0.6295261694638197  1.0000
