data_image0
_chemical_formula_structural       NC9NC3OH6C6SCOC6H10C6OC6OCH10Zn2C4O8
_chemical_formula_sum              "N2 C42 O12 H26 S1 Zn2"
_cell_length_a       15.78231758774541
_cell_length_b       10.302038109246572
_cell_length_c       10.299362532796529
_cell_angle_alpha    85.5856087193975
_cell_angle_beta     90.09919445181322
_cell_angle_gamma    89.64990665055792

_space_group_name_H-M_alt    "P 1"
_space_group_IT_number       1

loop_
  _space_group_symop_operation_xyz
  'x, y, z'

loop_
  _atom_site_type_symbol
  _atom_site_label
  _atom_site_symmetry_multiplicity
  _atom_site_fract_x
  _atom_site_fract_y
  _atom_site_fract_z
  _atom_site_occupancy
  N   N1        1.0  0.7979076420545589  0.4124838325709814  0.5700958818366781  1.0000
  C   C1        1.0  0.7493634777534962  0.3304475226519925  0.5941654550324909  1.0000
  C   C2        1.0  0.6890940980294005  0.22862052142512865  0.6240419963690514  1.0000
  C   C3        1.0  0.7087377646581843  0.10070937377361289  0.6614923376267146  1.0000
  C   C4        1.0  0.6319980280824038  0.03871864784909795  0.6797167896836056  1.0000
  C   C5        1.0  0.570231386080025  0.13338754938382966  0.6520405309871494  1.0000
  C   C6        1.0  0.47713783047895436  0.11588474520996672  0.6572492138661279  1.0000
  C   C7        1.0  0.42340858267195675  0.22320375918638713  0.625709674863377  1.0000
  C   C8        1.0  0.3351999874162391  0.20885188163366306  0.629987830601753  1.0000
  C   C9        1.0  0.28077470205074007  0.31929339540181445  0.5975223859742582  1.0000
  N   N2        1.0  0.237029665051139  0.408074123173795  0.5714230695726612  1.0000
  C   C10       1.0  0.3000393295040586  0.08702126144622399  0.6658544994000626  1.0000
  C   C11       1.0  0.3528376783789418  0.9799241278838196  0.6973331883603007  1.0000
  C   C12       1.0  0.44086055321049034  0.9938817359392887  0.6931712885357325  1.0000
  O   O1        1.0  0.606706396076385  0.24558247279319298  0.6191431084546397  1.0000
  H   H1        1.0  0.7711917816891887  0.05757313005735054  0.6740710868531348  1.0000
  H   H2        1.0  0.6232508076407173  0.9367895997425876  0.709575208640374  1.0000
  H   H3        1.0  0.45002804585587985  0.31800958255103273  0.5977943252919324  1.0000
  H   H4        1.0  0.2319212516409538  0.07486596630827513  0.6694757524229628  1.0000
  H   H5        1.0  0.3254879952439912  0.8857664464627911  0.7250581177074302  1.0000
  H   H6        1.0  0.4799344569070694  0.9090532666112695  0.718112876874712  1.0000
  C   C13       1.0  0.01739243852364279  0.02900130123846311  0.5707190784033884  1.0000
  C   C14       1.0  0.944943696648506  0.03447362712605616  0.49098133272033706  1.0000
  C   C15       1.0  0.9092946868222551  0.9202337665231684  0.45082443119064175  1.0000
  C   C16       1.0  0.9452162186277503  0.7993382752749583  0.49092815075407903  1.0000
  C   C17       1.0  0.017552981996703066  0.7915466151123236  0.5708111370939084  1.0000
  C   C18       1.0  0.05331163700744799  0.9070344596554233  0.6102074871443519  1.0000
  S   S1        1.0  0.8173333754805978  0.9286602221017352  0.3479384273991539  1.0000
  C   C19       1.0  0.8796022810369382  0.936483766986923  0.20170610329757047  1.0000
  O   O2        1.0  0.900024585937609  0.8309965056202823  0.15541823905337493  1.0000
  C   C20       1.0  0.9075352600682377  0.06234902987623814  0.1362936215524531  1.0000
  C   C21       1.0  0.9674240091557995  0.06405525355413189  0.03496909846131424  1.0000
  C   C22       1.0  0.9946450805171151  0.1820988384551483  0.9733288864427867  1.0000
  C   C23       1.0  0.9624355363544713  0.2996711984344156  0.011732425308761169  1.0000
  C   C24       1.0  0.9028013725433868  0.2994345797484883  0.11170468719416607  1.0000
  C   C25       1.0  0.8752979339111827  0.1816975678404278  0.1736642152158574  1.0000
  H   H7        1.0  0.15385173094127547  0.225991673006505  0.7211838462349399  1.0000
  H   H8        1.0  0.9161110464682034  0.12727549576153005  0.45961870274257255  1.0000
  H   H9        1.0  0.9166564554435654  0.7118637178807719  0.4590778193176013  1.0000
  H   H10       1.0  0.10916487718699236  0.9018953629880206  0.6716766462284467  1.0000
  H   H11       1.0  0.045203115663626114  0.4612681190936579  0.6008609856393748  1.0000
  H   H12       1.0  0.9936292881305095  0.9742178673702072  0.003751034452692312  1.0000
  H   H13       1.0  0.04085174223136853  0.18236415986882196  0.8957717048754499  1.0000
  H   H14       1.0  0.9836062691717854  0.3909481564034434  0.9639225980055102  1.0000
  H   H15       1.0  0.877706263417943  0.39064315837873576  0.14116546995219936  1.0000
  H   H16       1.0  0.8285947300238452  0.18482458947755379  0.2500875693249811  1.0000
  C   C26       1.0  0.017406543957510165  0.4101541119433194  0.18939800019035236  1.0000
  C   C27       1.0  0.9369630545563465  0.3522953954823853  0.1924354869168028  1.0000
  C   C28       1.0  0.9372017014706047  0.3524565175476867  0.9571819279577631  1.0000
  C   C29       1.0  0.01753886008273087  0.41039377970295177  0.9521322041084096  1.0000
  C   C30       1.0  0.057108198654515635  0.4391645429332542  0.06877745508015899  1.0000
  C   C31       1.0  0.8115089303730677  0.2620059938371133  0.08233483276969603  1.0000
  O   O3        1.0  0.7941809461495049  0.18299241630290508  0.17816951784556803  1.0000
  C   C32       1.0  0.7466543077205957  0.2892021174459183  0.9792271978377509  1.0000
  C   C33       1.0  0.7401644186494575  0.41261023386381596  0.9113689929766169  1.0000
  C   C34       1.0  0.6781501820929317  0.437406787794772  0.8154888806838416  1.0000
  C   C35       1.0  0.6211329528698359  0.3403385001565201  0.7862560240710004  1.0000
  C   C36       1.0  0.6267318020832608  0.2171328396715686  0.8550297751755235  1.0000
  C   C37       1.0  0.688738418733215  0.19220919367244324  0.9509822541805713  1.0000
  O   O4        1.0  0.5601433291001229  0.3701035504927711  0.6890906445453516  1.0000
  C   C38       1.0  0.4983454815370854  0.2809844221832518  0.6495204790221508  1.0000
  H   H17       1.0  0.16934789365402625  0.5188407291707335  0.3909747578296705  1.0000
  H   H18       1.0  0.9055861166409381  0.32987500540219794  0.2848720067013062  1.0000
  H   H19       1.0  0.9069069188977275  0.3276866876880779  0.868033284033972  1.0000
  H   H20       1.0  0.11908267797572725  0.48385473938814755  0.06561474450494731  1.0000
  H   H21       1.0  0.7824143109879428  0.4904178965795675  0.9333302844052436  1.0000
  H   H22       1.0  0.6741331387683914  0.532883600388566  0.7639245619787808  1.0000
  H   H23       1.0  0.5835087610307204  0.14002057320319738  0.8351624006224935  1.0000
  H   H24       1.0  0.6919321918966779  0.096558823728915  0.002430870707345267  1.0000
  H   H25       1.0  0.45696363426665615  0.24919470515928774  0.7329412159571385  1.0000
  H   H26       1.0  0.529913200067103  0.19536794377072583  0.6109498186076713  1.0000
  Zn  Zn1       1.0  0.9246287692582583  0.4112078199020876  0.5704863725606198  1.0000
  Zn  Zn2       1.0  0.11030850896566276  0.40933954224509295  0.5710431938382108  1.0000
  C   C39       1.0  0.017510858907961543  0.4051760670112648  0.8079584640450638  1.0000
  C   C40       1.0  0.01742844729989711  0.41537291300184864  0.3335712360977974  1.0000
  C   C41       1.0  0.01751735319240799  0.6474077275144745  0.5656185536251201  1.0000
  C   C42       1.0  0.01742188933958209  0.17313969322875716  0.575911215377769  1.0000
  O   O5        1.0  0.08790029061021304  0.4164097242917757  0.3821684011964257  1.0000
  O   O6        1.0  0.08796564142781775  0.4027202966031793  0.7597835394496961  1.0000
  O   O7        1.0  0.08796993598379704  0.5983254358790027  0.5640923445048427  1.0000
  O   O8        1.0  0.08789593267938112  0.22080459491086854  0.5778594985781917  1.0000
  O   O9        1.0  0.9470412821811565  0.5997427678752747  0.5636700676237925  1.0000
  O   O10       1.0  0.9470369879376634  0.4041391885082954  0.7593611935117712  1.0000
  O   O11       1.0  0.94697163689605  0.41782857046053884  0.3817444938599784  1.0000
  O   O12       1.0  0.9469672789766873  0.22222343182367776  0.5774356886079854  1.0000
