data_image0
_chemical_formula_structural       NC5OC5NC4H8C6NCOH7C6ClH5Zn2C4O8
_chemical_formula_sum              "N3 C31 O10 H20 Cl1 Zn2"
_cell_length_a       19.189071930511275
_cell_length_b       9.273730183620392
_cell_length_c       10.302974078461048
_cell_angle_alpha    85.70652844495697
_cell_angle_beta     89.9779158844828
_cell_angle_gamma    90.58548044243636

_space_group_name_H-M_alt    "P 1"
_space_group_IT_number       1

loop_
  _space_group_symop_operation_xyz
  'x, y, z'

loop_
  _atom_site_type_symbol
  _atom_site_label
  _atom_site_symmetry_multiplicity
  _atom_site_fract_x
  _atom_site_fract_y
  _atom_site_fract_z
  _atom_site_occupancy
  N   N1        1.0  0.6641275609903189  0.5781305846227325  0.5711393666562656  1.0000
  C   C1        1.0  0.6099273480489322  0.6293435398836786  0.5529716210249831  1.0000
  C   C2        1.0  0.542509262735353  0.6930439221513829  0.5303736736728113  1.0000
  C   C3        1.0  0.5333530722556699  0.8006754332312525  0.42923691929854263  1.0000
  C   C4        1.0  0.46786408418303477  0.8626333197772289  0.40741165954242686  1.0000
  C   C5        1.0  0.4108719366007694  0.8168447212499843  0.485368047005891  1.0000
  O   O1        1.0  0.34623218424608393  0.8828353920183102  0.4612878955444315  1.0000
  C   C6        1.0  0.2809298453481872  0.816634227945938  0.48480353672733867  1.0000
  C   C7        1.0  0.2245991672925835  0.902794885181327  0.5152516600815358  1.0000
  C   C8        1.0  0.15849064507475433  0.8411540074462637  0.5379280393706514  1.0000
  C   C9        1.0  0.1480499396352207  0.6925503904973984  0.5290488320683395  1.0000
  C   C10       1.0  0.0799942429900274  0.6290716172547919  0.5522415767728961  1.0000
  N   N2        1.0  0.0252814643934196  0.5780368914990859  0.5708879488797398  1.0000
  C   C11       1.0  0.2039056644446472  0.6060474010115666  0.4966831481933196  1.0000
  C   C12       1.0  0.2700055461870534  0.6677320767175363  0.4740504910502425  1.0000
  C   C13       1.0  0.4205153162147718  0.7102155623970372  0.5881249691038166  1.0000
  C   C14       1.0  0.48599536825012196  0.6482531178875628  0.6100115767364598  1.0000
  H   H1        1.0  0.5767826152206887  0.8367795397921904  0.3674486110135222  1.0000
  H   H2        1.0  0.46124679325808987  0.9459613204904205  0.32915903279861847  1.0000
  H   H3        1.0  0.232210732526675  0.017812295826488356  0.5220901713871393  1.0000
  H   H4        1.0  0.11558359886498021  0.9093012896748525  0.5621808468533238  1.0000
  H   H5        1.0  0.19628843399856621  0.49120006666101945  0.48827068034740595  1.0000
  H   H6        1.0  0.3122046519550254  0.599816555892213  0.446385584198725  1.0000
  H   H7        1.0  0.3778068445980119  0.6765293428520371  0.6523712817241736  1.0000
  H   H8        1.0  0.4926250386164763  0.5660887147666398  0.6893580107795334  1.0000
  C   C15       1.0  0.8425790607666683  0.15458369176946962  0.5700492130957444  1.0000
  C   C16       1.0  0.8527986396970263  0.23806831821191143  0.45169647596669565  1.0000
  C   C17       1.0  0.8683767478793037  0.1732568396601395  0.3368069137914831  1.0000
  C   C18       1.0  0.8759446676169651  0.02279951346287756  0.3411619617068651  1.0000
  C   C19       1.0  0.8649436320113665  0.9381452480180097  0.4571802012976658  1.0000
  C   C20       1.0  0.8468366171523175  0.001572766251927154  0.5719893244565284  1.0000
  N   N3        1.0  0.8801563374119784  0.2630308563238901  0.21871357534215383  1.0000
  C   C21       1.0  0.8627491283219985  0.22208058318212445  0.09118639268656437  1.0000
  O   O2        1.0  0.8269257399497406  0.11018839854463369  0.07544565642183687  1.0000
  H   H9        1.0  0.8535027564933119  0.2312103319620986  0.8890790383179346  1.0000
  H   H10       1.0  0.8496982216973408  0.3548957281912757  0.44883531319159786  1.0000
  H   H11       1.0  0.8910670741066659  0.9703015842555719  0.25535457433432085  1.0000
  H   H12       1.0  0.8694279409702516  0.821852577537748  0.4564650907026086  1.0000
  H   H13       1.0  0.8512052327867032  0.7027536978378724  0.7866588171908073  1.0000
  H   H14       1.0  0.8982507585974286  0.36879959764529313  0.22583192176050781  1.0000
  H   H15       1.0  0.8789345913553284  0.290690407284109  0.006777507877596008  1.0000
  C   C22       1.0  0.8447078360853214  0.5780782272939287  0.18977675549753847  1.0000
  C   C23       1.0  0.8318329401408946  0.42829462536777063  0.198675769501532  1.0000
  C   C24       1.0  0.8254448036460728  0.35397608174157114  0.08613442629975965  1.0000
  C   C25       1.0  0.8318329717178656  0.4282947068063829  0.9635678706952852  1.0000
  C   C26       1.0  0.8447078339335727  0.5780781528517169  0.952261774401681  1.0000
  C   C27       1.0  0.8510825351899427  0.6522398528750382  0.06601724971590728  1.0000
  Cl  Cl1       1.0  0.8093610022446621  0.16686077953094758  0.09875495164420367  1.0000
  H   H16       1.0  0.849557988992186  0.6344991247729372  0.513727589327793  1.0000
  H   H17       1.0  0.8267123028474956  0.3687221891272314  0.2927403448899777  1.0000
  H   H18       1.0  0.8267123514410265  0.36872216853619255  0.8775393787350327  1.0000
  H   H19       1.0  0.8610120101160343  0.7677574623939623  0.05822573800701502  1.0000
  H   H20       1.0  0.849557856322788  0.6344991120452261  0.6206999589095021  1.0000
  Zn  Zn1       1.0  0.7683487655993272  0.5780996995308161  0.5710742956632475  1.0000
  Zn  Zn2       1.0  0.9210602180819606  0.5780560230587637  0.5709636078045364  1.0000
  C   C28       1.0  0.8446773907920547  0.5723329623231758  0.8081225936730919  1.0000
  C   C29       1.0  0.8447332696402995  0.5838245794330101  0.33391544017816566  1.0000
  C   C30       1.0  0.8460282466178314  0.8414737676566221  0.5664491157960041  1.0000
  C   C31       1.0  0.8433823529951853  0.3146820414398599  0.5755889833399228  1.0000
  O   O3        1.0  0.9026949741023209  0.5857302410554652  0.382247679603249  1.0000
  O   O4        1.0  0.9026201397930771  0.5703930633132208  0.7597059685102654  1.0000
  O   O5        1.0  0.903710191719412  0.78772766759339  0.5645529292455855  1.0000
  O   O6        1.0  0.901604870117771  0.36839564710675  0.5774006215869405  1.0000
  O   O7        1.0  0.7878040614506007  0.787760075499305  0.5646372819117904  1.0000
  O   O8        1.0  0.7867140182306865  0.5704272038953142  0.7597902559227476  1.0000
  O   O9        1.0  0.7867888523336862  0.5857643313820786  0.3823304060174946  1.0000
  O   O10       1.0  0.785698748294435  0.3684297271183845  0.5774834453131212  1.0000
