data_image0
_chemical_formula_structural       NC4OC2NH2C10H10C6H4Zn2C4O8
_chemical_formula_sum              "N2 C26 O9 H16 Zn2"
_cell_length_a       11.421685574793525
_cell_length_b       15.491143632010283
_cell_length_c       10.30228053409233
_cell_angle_alpha    82.997624279567
_cell_angle_beta     90.02016684939795
_cell_angle_gamma    89.41594580595003

_space_group_name_H-M_alt    "P 1"
_space_group_IT_number       1

loop_
  _space_group_symop_operation_xyz
  'x, y, z'

loop_
  _atom_site_type_symbol
  _atom_site_label
  _atom_site_symmetry_multiplicity
  _atom_site_fract_x
  _atom_site_fract_y
  _atom_site_fract_z
  _atom_site_occupancy
  N   N1        1.0  0.08932539094512172  0.9492599498102804  0.5042855041645731  1.0000
  C   C1        1.0  0.02849664765511073  0.946281610866038  0.5944871581244913  1.0000
  C   C2        1.0  0.9528331393858832  0.9425787633513925  0.7066318027959526  1.0000
  C   C3        1.0  0.98761435727675  0.9383302246701899  0.8352863641674212  1.0000
  C   C4        1.0  0.8851916394706952  0.9359576552014343  0.9071084606807773  1.0000
  O   O1        1.0  0.794206858230654  0.9385608940729568  0.8282719323743548  1.0000
  C   C5        1.0  0.8321241463072407  0.9425507539001458  0.7074666759764641  1.0000
  C   C6        1.0  0.756720928709836  0.9462642414885702  0.5950016005767256  1.0000
  N   N2        1.0  0.6960850758013968  0.9492518593972766  0.5045252528606985  1.0000
  H   H1        1.0  0.0762685734818831  0.9370977972352993  0.8726093049215918  1.0000
  H   H2        1.0  0.8793309140431824  0.932479621443417  0.012410366626781409  1.0000
  C   C7        1.0  0.3962309873498678  0.6945402412213324  0.5215932369473593  1.0000
  C   C8        1.0  0.3806239624698764  0.6363275714098423  0.43707228634171197  1.0000
  C   C9        1.0  0.38722792082546087  0.5407691991068209  0.47410141273670203  1.0000
  C   C10       1.0  0.4471650177362574  0.502363517700347  0.586293279178338  1.0000
  C   C11       1.0  0.45168957308005653  0.41193361976659243  0.6164327236600646  1.0000
  C   C12       1.0  0.39819436367175787  0.3577359918867644  0.5347209490094231  1.0000
  C   C13       1.0  0.33825735431375903  0.3961416732902895  0.4225290826078454  1.0000
  C   C14       1.0  0.3337326238643643  0.4865715712299426  0.39238963804600235  1.0000
  C   C15       1.0  0.4047984095801401  0.26217761958079394  0.5717500754444711  1.0000
  C   C16       1.0  0.38919077280691355  0.20396487884094497  0.4872292249293171  1.0000
  H   H3        1.0  0.39791567972350733  0.9109017494247172  0.549870648659319  1.0000
  H   H4        1.0  0.4133027742678894  0.6735462401152958  0.6238300236824965  1.0000
  H   H5        1.0  0.358332451081657  0.6594682405037071  0.33644599878799086  1.0000
  H   H6        1.0  0.4924971811198281  0.5413751852690617  0.6500912637166816  1.0000
  H   H7        1.0  0.49845654194829936  0.3841266871197459  0.7033683924906009  1.0000
  H   H8        1.0  0.29292501492919376  0.3571300704725002  0.35873109537909453  1.0000
  H   H9        1.0  0.2869658292063178  0.5143785686159174  0.30545396668529134  1.0000
  H   H10       1.0  0.4270901835458037  0.23903695668205865  0.6723762653577567  1.0000
  H   H11       1.0  0.3721184615484537  0.22495880901567425  0.3849925383247321  1.0000
  H   H12       1.0  0.38750511678089405  0.9876034105991217  0.45895220120886454  1.0000
  C   C17       1.0  0.39271090731507297  0.9492525534065976  0.12314307365762289  1.0000
  C   C18       1.0  0.3519723731158384  0.9831470810107037  0.9981820813764584  1.0000
  C   C19       1.0  0.3927108982856223  0.9492525523163609  0.8856793887628625  1.0000
  C   C20       1.0  0.47509212016909474  0.8807112731310646  0.8995063645201915  1.0000
  C   C21       1.0  0.5158385979610788  0.8468102199684123  0.023238113720867263  1.0000
  C   C22       1.0  0.47509225144903455  0.8807112843061278  0.13450927437456195  1.0000
  H   H13       1.0  0.2885005409574126  0.03595587219596431  0.9884768898207565  1.0000
  H   H14       1.0  0.5080853945207429  0.8532608608973605  0.8147589416720513  1.0000
  H   H15       1.0  0.5792843872096147  0.7940233053535297  0.03293948623388565  1.0000
  H   H16       1.0  0.508085524570572  0.8532608524978684  0.22934643156799983  1.0000
  Zn  Zn1       1.0  0.2644231772447574  0.9492552921739567  0.50436234866771  1.0000
  Zn  Zn2       1.0  0.5209874207323494  0.9492494167873954  0.5044595356104109  1.0000
  C   C23       1.0  0.39275603803848314  0.9457970777334084  0.7417767874607473  1.0000
  C   C24       1.0  0.3926573464873062  0.9527087255950462  0.2670451514848957  1.0000
  C   C25       1.0  0.3905155311348927  0.10767278323708236  0.4885509443538063  1.0000
  C   C26       1.0  0.39489778024544187  0.790831977969915  0.5202711340770387  1.0000
  O   O2        1.0  0.49000421658820903  0.9538626347362871  0.3153771405685828  1.0000
  O   O3        1.0  0.4901355012952658  0.9446380549546965  0.6935182314110699  1.0000
  O   O4        1.0  0.48832495111153223  0.07535473437671159  0.489036510151111  1.0000
  O   O5        1.0  0.4918146791381963  0.8231459615211983  0.5198587640278747  1.0000
  O   O6        1.0  0.29359583128611266  0.07535874744310282  0.48896312021018784  1.0000
  O   O7        1.0  0.29540636706250295  0.9446431101454938  0.6934447019448873  1.0000
  O   O8        1.0  0.2952750828510636  0.9538676597006606  0.3153020521532408  1.0000
  O   O9        1.0  0.2970855454819994  0.8231509802815941  0.5197837733731419  1.0000
