data_image0
_chemical_formula_structural       NC5OC5NC4H8C6BrH5C6ClH5Zn2C4O8
_chemical_formula_sum              "N2 C30 O9 H18 Br1 Cl1 Zn2"
_cell_length_a       19.189071930511275
_cell_length_b       9.276564384272257
_cell_length_c       10.302974078461048
_cell_angle_alpha    85.51203645114332
_cell_angle_beta     89.9779158844828
_cell_angle_gamma    90.57707898574843

_space_group_name_H-M_alt    "P 1"
_space_group_IT_number       1

loop_
  _space_group_symop_operation_xyz
  'x, y, z'

loop_
  _atom_site_type_symbol
  _atom_site_label
  _atom_site_symmetry_multiplicity
  _atom_site_fract_x
  _atom_site_fract_y
  _atom_site_fract_z
  _atom_site_occupancy
  N   N1        1.0  0.6640187244255308  0.5780573798685396  0.5663029341102798  1.0000
  C   C1        1.0  0.6098149795570793  0.6292679595137811  0.5479782382202456  1.0000
  C   C2        1.0  0.5423925011147889  0.6929653869114187  0.5251850709002253  1.0000
  C   C3        1.0  0.5332288877741314  0.8005919052876495  0.42371846261637985  1.0000
  C   C4        1.0  0.46773562674487335  0.8625469177927204  0.40170332304810463  1.0000
  C   C5        1.0  0.4107466369961986  0.8167604432615079  0.47980003696510165  1.0000
  O   O1        1.0  0.3461023335619101  0.8827480529201384  0.4555176465818795  1.0000
  C   C6        1.0  0.2808045602603923  0.8165499597216155  0.4792361717768079  1.0000
  C   C7        1.0  0.22446794009198445  0.9027066202220101  0.5094202420729771  1.0000
  C   C8        1.0  0.158363668968107  0.841068601822763  0.5322855296502569  1.0000
  C   C9        1.0  0.1479332120513138  0.6924718781508903  0.5238617418021185  1.0000
  C   C10       1.0  0.07988189325145471  0.6289960494985707  0.5472490273183679  1.0000
  N   N2        1.0  0.025172634290224608  0.577963691091037  0.5660518034712548  1.0000
  C   C11       1.0  0.2037949025826592  0.6059729012798221  0.49176116011683557  1.0000
  C   C12       1.0  0.2698905302105647  0.6676547156183184  0.46893946045973584  1.0000
  C   C13       1.0  0.42039737034345276  0.7101362306160793  0.5828837411045471  1.0000
  C   C14       1.0  0.48588169564976785  0.6481766603589414  0.6049602425179547  1.0000
  H   H1        1.0  0.5766559408013903  0.8366943370871502  0.36181950754603237  1.0000
  H   H2        1.0  0.46111258906269786  0.9458710531693739  0.32319532437337406  1.0000
  H   H3        1.0  0.2320715730928455  0.01771869555375939  0.5159062642033373  1.0000
  H   H4        1.0  0.1154519229469423  0.9092127229029059  0.5563294889318346  1.0000
  H   H5        1.0  0.196185592640412  0.49113089435335616  0.48370066022026936  1.0000
  H   H6        1.0  0.3120943198063862  0.5997423451907237  0.44148269153957653  1.0000
  H   H7        1.0  0.3776912219136658  0.6764515736739753  0.6472332905103425  1.0000
  H   H8        1.0  0.49251703252526335  0.5660160685987463  0.684558482461787  1.0000
  C   C15       1.0  0.8424994343251069  0.15453013408788485  0.5665108074667364  1.0000
  C   C16       1.0  0.8335689209468806  0.23803174762633209  0.44785929431307986  1.0000
  C   C17       1.0  0.8311239209090818  0.17304352177188134  0.3303115934792537  1.0000
  C   C18       1.0  0.8375939509573316  0.0236346836323087  0.32918339592407414  1.0000
  C   C19       1.0  0.8452967888228412  0.9384400595099998  0.44604145767164105  1.0000
  C   C20       1.0  0.846698562474041  0.0014798478340789507  0.5658551023636462  1.0000
  Br  Br1       1.0  0.8347614885137902  0.9352776564465249  0.1678870490215314  1.0000
  H   H9        1.0  0.8220642608898258  0.41708781692256897  0.7775920141387547  1.0000
  H   H10       1.0  0.8301298812628779  0.35468903214579317  0.4456390935089385  1.0000
  H   H11       1.0  0.8248616453986991  0.23926538545782106  0.23988422789082395  1.0000
  H   H12       1.0  0.8485211464573815  0.8221992412475863  0.44324017912328784  1.0000
  H   H13       1.0  0.8851415268269813  0.7035372020589944  0.7680293161546649  1.0000
  C   C21       1.0  0.8445990031313828  0.5780050249684354  0.1849404834089265  1.0000
  C   C22       1.0  0.8317344370879501  0.4282283710552417  0.19429853311900788  1.0000
  C   C23       1.0  0.8253514260086467  0.3539132748438327  0.08198495093185998  1.0000
  C   C24       1.0  0.8317344686593047  0.42822845249007635  0.9591906340631793  1.0000
  C   C25       1.0  0.8445990009847683  0.5780049505296772  0.9474255025412095  1.0000
  C   C26       1.0  0.8509685876424168  0.6521632104137141  0.060953697513013605  1.0000
  Cl  Cl1       1.0  0.8092805291076052  0.1668066523520091  0.09517892092421909  1.0000
  H   H14       1.0  0.8494452649428438  0.6344233052508883  0.5087184064119652  1.0000
  H   H15       1.0  0.826617908237401  0.3686586982017088  0.2885456777271897  1.0000
  H   H16       1.0  0.8266179568323518  0.368658677611625  0.8733447116353501  1.0000
  H   H17       1.0  0.8608900958388128  0.7676754614164969  0.0528081636897566  1.0000
  H   H18       1.0  0.8494451322743236  0.6344232925237676  0.6156907760326797  1.0000
  Zn  Zn1       1.0  0.7682399311645448  0.5780264962092907  0.5662379577695451  1.0000
  Zn  Zn2       1.0  0.9209513866593476  0.5779828217632592  0.5661274037643398  1.0000
  C   C27       1.0  0.8445689540631869  0.5722600265033282  0.8033039288641057  1.0000
  C   C28       1.0  0.8446240403863123  0.5837511105514415  0.32906155747812693  1.0000
  C   C29       1.0  0.8459012484587614  0.8413883472004022  0.5608056261195129  1.0000
  C   C30       1.0  0.8432916852908944  0.3146210572750368  0.5715599308174011  1.0000
  O   O2        1.0  0.9025856134234271  0.5856566837759576  0.377387956699629  1.0000
  O   O3        1.0  0.9025118368503144  0.5703202174794821  0.7548932488307876  1.0000
  O   O4        1.0  0.9035869001870043  0.7876447402578801  0.5590741530535794  1.0000
  O   O5        1.0  0.9015104980278101  0.3683321713285346  0.5732069551641874  1.0000
  O   O6        1.0  0.7876807676831655  0.7876771466604899  0.5591584064005942  1.0000
  O   O7        1.0  0.7866057129334018  0.5703543564778957  0.7549774316140188  1.0000
  O   O8        1.0  0.7866794893037362  0.585690772521223  0.3774705786386385  1.0000
  O   O9        1.0  0.7856043738541291  0.368366249759299  0.5732896744467438  1.0000
