data_image0
_chemical_formula_structural       NC9NC3OH6C7ONH7C7F3H5Zn2C4O8
_chemical_formula_sum              "N3 C30 O10 H18 F3 Zn2"
_cell_length_a       15.78231758774541
_cell_length_b       10.297852080636378
_cell_length_c       9.272721663655243
_cell_angle_alpha    85.87639669813234
_cell_angle_beta     90.60221336655935
_cell_angle_gamma    89.61065309411966

_space_group_name_H-M_alt    "P 1"
_space_group_IT_number       1

loop_
  _space_group_symop_operation_xyz
  'x, y, z'

loop_
  _atom_site_type_symbol
  _atom_site_label
  _atom_site_symmetry_multiplicity
  _atom_site_fract_x
  _atom_site_fract_y
  _atom_site_fract_z
  _atom_site_occupancy
  N   N1        1.0  0.7891183990414969  0.4057118286147959  0.4121075157430394  1.0000
  C   C1        1.0  0.7407482920222687  0.32376503968100634  0.438844722765652  1.0000
  C   C2        1.0  0.6806949616918145  0.22204915756154892  0.4720324847705278  1.0000
  C   C3        1.0  0.7006095682306948  0.09427718437479517  0.5136334900232171  1.0000
  C   C4        1.0  0.624001564972944  0.032354291858167405  0.5338777429563084  1.0000
  C   C5        1.0  0.5620346318862828  0.12692040099587842  0.5031340730875491  1.0000
  C   C6        1.0  0.46897863046992005  0.10943707425457916  0.5089199996975415  1.0000
  C   C7        1.0  0.415021386290743  0.21663871008299718  0.47388495460312546  1.0000
  C   C8        1.0  0.3268436254099777  0.2023028404428951  0.4786372265358314  1.0000
  C   C9        1.0  0.2721836629628591  0.3126235184074415  0.44257366227067757  1.0000
  N   N2        1.0  0.22824996852310392  0.4013071031511149  0.41358177982242106  1.0000
  C   C10       1.0  0.2919421491752254  0.08060579148329228  0.5184789444071627  1.0000
  C   C11       1.0  0.34496804789858904  0.9736258158363424  0.5534463933984477  1.0000
  C   C12       1.0  0.43296092817017745  0.987567849190675  0.548823261759936  1.0000
  O   O1        1.0  0.5982717150169213  0.23899300003988436  0.466590615110396  1.0000
  H   H1        1.0  0.7631546658782535  0.05118761335328069  0.5276063808538725  1.0000
  H   H2        1.0  0.6154703362837841  0.9305362266473052  0.5670453971771452  1.0000
  H   H3        1.0  0.44143913324149303  0.31134056702725177  0.44287579099690194  1.0000
  H   H4        1.0  0.22385017431838802  0.06846404328201183  0.5225015149844638  1.0000
  H   H5        1.0  0.31781870437609766  0.879571392249247  0.5842440326052196  1.0000
  H   H6        1.0  0.47221511442809455  0.9028322196777271  0.5765291040997043  1.0000
  C   C13       1.0  0.00877859983229489  0.022071425198806557  0.4128535614277913  1.0000
  C   C14       1.0  0.9963847026945409  0.030984140081668162  0.2621761886213949  1.0000
  C   C15       1.0  0.9893524810388747  0.9184186195053757  0.18589092160173706  1.0000
  C   C16       1.0  0.9961702250624662  0.7957338348268396  0.2621257239002117  1.0000
  C   C17       1.0  0.008597888790568886  0.7849375108661096  0.4128481603941988  1.0000
  C   C18       1.0  0.014620427311692994  0.8986237221364948  0.4872607473263435  1.0000
  C   C19       1.0  0.9764721062563464  0.9304306811917246  0.026726792513679598  1.0000
  O   O2        1.0  0.9987298848217577  0.032955216108906844  0.954996480542449  1.0000
  N   N3        1.0  0.9382217727266765  0.8286347581752378  0.952151013507245  1.0000
  H   H7        1.0  0.03250953077814889  0.21249639352607352  0.6975584052977449  1.0000
  H   H8        1.0  0.9914350592477705  0.1258717111463874  0.20403523418559977  1.0000
  H   H9        1.0  0.9934672642860639  0.7082734968461865  0.20428402428476677  1.0000
  H   H10       1.0  0.0241704441790309  0.8910010540772434  0.6033896636536156  1.0000
  H   H11       1.0  0.03344216859073687  0.5572614999427676  0.6974253470337558  1.0000
  H   H12       1.0  0.9333563406648587  0.8371947637081284  0.8394718955793827  1.0000
  H   H13       1.0  0.9095779764121767  0.7490614998357396  0.007461164230988307  1.0000
  C   C20       1.0  0.006446818886626012  0.40142018582499617  0.9894001498774014  1.0000
  C   C21       1.0  0.042534993843153596  0.2948141221335592  0.0722443029450015  1.0000
  C   C22       1.0  0.08604804680950794  0.1958598314475595  0.006485991397355835  1.0000
  C   C23       1.0  0.09087719712440884  0.20179277726231068  0.8553523477458352  1.0000
  C   C24       1.0  0.05428748178113674  0.30569949999761437  0.7715382257485701  1.0000
  C   C25       1.0  0.010929721354728807  0.4055887687608579  0.8363016016399762  1.0000
  C   C26       1.0  0.12233872829252074  0.08066134679886151  0.09695589455279108  1.0000
  F   F1        1.0  0.15086565996306045  0.11812668569038232  0.22928437987625783  1.0000
  F   F2        1.0  0.1898942545255462  0.026256772744063246  0.028063109170790797  1.0000
  F   F3        1.0  0.06015213995120926  0.9877887638432212  0.11978341155651395  1.0000
  H   H14       1.0  0.9526625995290667  0.7112689707292956  0.06543705611717687  1.0000
  H   H15       1.0  0.038305146824881814  0.29024188459710065  0.18907576475715837  1.0000
  H   H16       1.0  0.12221419482808787  0.12517545413455866  0.8015501660539313  1.0000
  H   H17       1.0  0.057918330867664285  0.3060785127131525  0.6548957951517531  1.0000
  H   H18       1.0  0.8588190243762625  0.6261973032861521  0.7144987280543553  1.0000
  Zn  Zn1       1.0  0.915842325448321  0.40443729134153594  0.4125412768614036  1.0000
  Zn  Zn2       1.0  0.10152607853040613  0.40257109705387123  0.41315980654604156  1.0000
  C   C27       1.0  0.01008167472652377  0.3996262040728782  0.6762191404483588  1.0000
  C   C28       1.0  0.007288757274014342  0.4073838035569516  0.14948209123354483  1.0000
  C   C29       1.0  0.008597295037642944  0.6407113411618848  0.4071029871202385  1.0000
  C   C30       1.0  0.008773074378562342  0.16629710689778343  0.418598321240254  1.0000
  O   O3        1.0  0.07803733742579588  0.408671370371418  0.2034417819508214  1.0000
  O   O4        1.0  0.08026276476931593  0.39692125703163583  0.6227284843590397  1.0000
  O   O5        1.0  0.0790631674190625  0.5916005710959107  0.4054152833313765  1.0000
  O   O6        1.0  0.07923687084025616  0.21399206570367668  0.4207548746479657  1.0000
  O   O7        1.0  0.9381314697736787  0.5930163233299476  0.40494620854082025  1.0000
  O   O8        1.0  0.9393310663434739  0.39833856947405183  0.6222593326712365  1.0000
  O   O9        1.0  0.9371056298901193  0.41008862901563364  0.20297089657143255  1.0000
  O   O10       1.0  0.9383051638755807  0.21540931558957627  0.42028409738043737  1.0000
