data_image0
_chemical_formula_structural       NC5NC3BrH3C6NCH9C7F3H5Zn2C4O8
_chemical_formula_sum              "N3 C26 Br1 H17 F3 Zn2 O8"
_cell_length_a       13.839083392302014
_cell_length_b       9.273386996610926
_cell_length_c       10.299327507215196
_cell_angle_alpha    85.45811780594276
_cell_angle_beta     89.98220145889688
_cell_angle_gamma    89.42455387291925

_space_group_name_H-M_alt    "P 1"
_space_group_IT_number       1

loop_
  _space_group_symop_operation_xyz
  'x, y, z'

loop_
  _atom_site_type_symbol
  _atom_site_label
  _atom_site_symmetry_multiplicity
  _atom_site_fract_x
  _atom_site_fract_y
  _atom_site_fract_z
  _atom_site_occupancy
  N   N1        1.0  0.8991386386687057  0.579704823247918  0.5650785261841356  1.0000
  C   C1        1.0  0.8275832435500761  0.5160318105964374  0.5673933416561302  1.0000
  C   C2        1.0  0.7384303546317609  0.43680056798648964  0.5702736303558654  1.0000
  C   C3        1.0  0.6503384187576674  0.5130382262567315  0.5675023422252163  1.0000
  C   C4        1.0  0.5628168365549999  0.4382740186326832  0.5702200154267776  1.0000
  C   C5        1.0  0.4725059565018797  0.5168642350347485  0.5673630653644499  1.0000
  N   N2        1.0  0.3999076997583658  0.5800446078609702  0.5650661239469288  1.0000
  C   C6        1.0  0.5633235461448612  0.2869604959154084  0.5757203489283076  1.0000
  C   C7        1.0  0.6509712883020642  0.2106015100416283  0.5784959651083392  1.0000
  C   C8        1.0  0.7386939163523615  0.28465124029756805  0.5758042817463234  1.0000
  Br  Br1       1.0  0.856870384713743  0.1745064553577196  0.5798081879499244  1.0000
  H   H1        1.0  0.6498906712909897  0.6302934001776732  0.5632398696008427  1.0000
  H   H2        1.0  0.496042592019785  0.2280787990830082  0.5778604912640029  1.0000
  H   H3        1.0  0.6506540877329006  0.09359566578353418  0.5827490344601594  1.0000
  C   C9        1.0  0.15249903152622446  0.15622263396168054  0.5657104606524803  1.0000
  C   C10       1.0  0.16949385153255236  0.2397278113148107  0.44828167612851955  1.0000
  C   C11       1.0  0.17739064807347038  0.17524832848722036  0.3308458575523215  1.0000
  C   C12       1.0  0.16841237748347918  0.02494203504012727  0.32783626445695324  1.0000
  C   C13       1.0  0.15312048862998887  0.9404751613801247  0.44485708706370747  1.0000
  C   C14       1.0  0.1465566062781225  0.0035156531406728055  0.5644454870145699  1.0000
  N   N3        1.0  0.17549291227027086  0.9554259463835312  0.20797589144985418  1.0000
  C   C15       1.0  0.19162050100996922  0.0333528635541882  0.08123884373454705  1.0000
  H   H4        1.0  0.17218875309859816  0.41834794249904794  0.7789317790743645  1.0000
  H   H5        1.0  0.1744227142235666  0.3563772936185789  0.44668819389895353  1.0000
  H   H6        1.0  0.1895976245507536  0.24387228722535667  0.2426275463282137  1.0000
  H   H7        1.0  0.14856010707237877  0.8240713126231969  0.44280838611609474  1.0000
  H   H8        1.0  0.18205779799311883  0.87212917303696  0.880767331279326  1.0000
  H   H9        1.0  0.1686608350970773  0.8430537745514488  0.21066918695321893  1.0000
  H   H10       1.0  0.1317238913884926  0.11188925542463514  0.05867518162036612  1.0000
  H   H11       1.0  0.26155953213613903  0.09095203100882787  0.08144668699425008  1.0000
  H   H12       1.0  0.19407495288342158  0.955929751464681  0.0043525250512903525  1.0000
  C   C16       1.0  0.14961995092274294  0.579927813344131  0.18369628968311003  1.0000
  C   C17       1.0  0.2431147128195441  0.6378375251963586  0.1783371331486643  1.0000
  C   C18       1.0  0.2895563788131914  0.669498903589473  0.05833376329060269  1.0000
  C   C19       1.0  0.24287281021721285  0.6376843760692317  0.9430999099009032  1.0000
  C   C20       1.0  0.1494357375999762  0.5798105155753062  0.9464596454906551  1.0000
  C   C21       1.0  0.10320392326769068  0.5518025998433529  0.06723012188494626  1.0000
  C   C22       1.0  0.3912837956752127  0.7267769577616506  0.05398349198462937  1.0000
  F   F1        1.0  0.4075714506790009  0.8110353201984335  0.15674845804591375  1.0000
  F   F2        1.0  0.4559165301099706  0.6117959210273414  0.062022602100425324  1.0000
  F   F3        1.0  0.4073061346881832  0.8110155663916657  0.9391050901640701  1.0000
  H   H13       1.0  0.9738567872774653  0.4682338412344093  0.40121932501244256  1.0000
  H   H14       1.0  0.2800284352617888  0.6581537089085676  0.2677024532608978  1.0000
  H   H15       1.0  0.279620635579092  0.6578916296844928  0.8506888336849032  1.0000
  H   H16       1.0  0.031142250912282954  0.5071719247105357  0.07055573842827934  1.0000
  H   H17       1.0  0.11416096841165979  0.5551932697756565  0.6204657098185221  1.0000
  Zn  Zn1       1.0  0.043649800758801094  0.5797990086009768  0.5650824586454315  1.0000
  Zn  Zn2       1.0  0.2553966101665355  0.5799385961147258  0.5650728674006245  1.0000
  C   C23       1.0  0.1495086839301314  0.5740853713599015  0.8022896081558656  1.0000
  C   C24       1.0  0.14954002646652031  0.5856540551571596  0.32786584253848594  1.0000
  C   C25       1.0  0.1476761438034746  0.8433600436193471  0.5595092283616945  1.0000
  C   C26       1.0  0.1513725064783682  0.31637764954292824  0.5706462941646682  1.0000
  O   O1        1.0  0.22987005787309234  0.5876225130397702  0.37624683105120593  1.0000
  O   O2        1.0  0.22988958909968593  0.572221768881564  0.7539009678766126  1.0000
  O   O3        1.0  0.22840870619734077  0.7896644712522785  0.557854091290829  1.0000
  O   O4        1.0  0.23135086847173647  0.3701798209566496  0.572293610246929  1.0000
  O   O5        1.0  0.0676954701947967  0.7895577837129903  0.5578617157955659  1.0000
  O   O6        1.0  0.06917634095314718  0.5721168146509992  0.7539085205457773  1.0000
  O   O7        1.0  0.06915681052057422  0.5875175087758301  0.37625282234251195  1.0000
  O   O8        1.0  0.07063762116411601  0.3700748063590529  0.5722996989247349  1.0000
