data_image0
_chemical_formula_structural       NC9NC3OH6C8H6C7NC2NH7Zn2C4O8
_chemical_formula_sum              "N4 C33 O9 H19 Zn2"
_cell_length_a       15.78231758774541
_cell_length_b       9.27514070457351
_cell_length_c       9.27399911348925
_cell_angle_alpha    85.20391567868208
_cell_angle_beta     89.74395178918073
_cell_angle_gamma    90.22379856908987

_space_group_name_H-M_alt    "P 1"
_space_group_IT_number       1

loop_
  _space_group_symop_operation_xyz
  'x, y, z'

loop_
  _atom_site_type_symbol
  _atom_site_label
  _atom_site_symmetry_multiplicity
  _atom_site_fract_x
  _atom_site_fract_y
  _atom_site_fract_z
  _atom_site_occupancy
  N   N1        1.0  0.8129538885243296  0.5828175370967776  0.4144621588018551  1.0000
  C   C1        1.0  0.7637759568151272  0.4914770624989524  0.4410028334393974  1.0000
  C   C2        1.0  0.7027199162607788  0.3781013278388443  0.4739466513382826  1.0000
  C   C3        1.0  0.7213757332425293  0.23568389985619767  0.5152411429327786  1.0000
  C   C4        1.0  0.6441569427032656  0.16666212104152756  0.5353369229701221  1.0000
  C   C5        1.0  0.5831212545255823  0.2720669196246432  0.5048201501616869  1.0000
  C   C6        1.0  0.48989218333016477  0.2525782993467445  0.510564220057129  1.0000
  C   C7        1.0  0.43699223482950034  0.37206943989718355  0.47578622381832947  1.0000
  C   C8        1.0  0.3486724908978966  0.3560891695185697  0.4805041815121289  1.0000
  C   C9        1.0  0.2951006672875951  0.4790570462270994  0.4447051367075314  1.0000
  N   N2        1.0  0.2520417086667365  0.5779073664900616  0.41592589247187894  1.0000
  C   C10       1.0  0.3125701424399002  0.22043989321665067  0.5200541557688487  1.0000
  C   C11       1.0  0.3645408888321004  0.1011957552685876  0.5547650917654698  1.0000
  C   C12       1.0  0.4526718640825569  0.11673703423886563  0.5501753304085188  1.0000
  O   O1        1.0  0.6204629363869366  0.3969862460133967  0.4685454958359869  1.0000
  H   H1        1.0  0.7834968188451799  0.18765612382201136  0.5291106147819205  1.0000
  H   H2        1.0  0.6346224687455095  0.05317324560237857  0.5682603399007877  1.0000
  H   H3        1.0  0.46434451944603755  0.4776286749347469  0.4450040836852618  1.0000
  H   H4        1.0  0.2443579360612649  0.2069054550908512  0.5240476618159222  1.0000
  H   H5        1.0  0.33646339248852414  0.9963581738639876  0.5853372599790467  1.0000
  H   H6        1.0  0.4910902147608359  0.0222871999406884  0.5776780047603876  1.0000
  C   C13       1.0  0.029931636013361004  0.15695915985254885  0.4141761006866025  1.0000
  C   C14       1.0  0.0424914748825371  0.241401054923232  0.2825599471926741  1.0000
  C   C15       1.0  0.06242186359676746  0.17695923377219547  0.15614129400251175  1.0000
  C   C16       1.0  0.07026710219795085  0.026917819653774933  0.15891125947892726  1.0000
  C   C17       1.0  0.05663045475707837  0.9409276174167834  0.28815838243451375  1.0000
  C   C18       1.0  0.035071913031405666  0.0037544720099298404  0.41622444921895596  1.0000
  C   C19       1.0  0.0913675545784205  0.9607469640630344  0.02846223115264212  1.0000
  C   C20       1.0  0.10903460010792448  0.9053300707154266  0.9192484235899525  1.0000
  H   H7        1.0  0.042546139011273354  0.23025141279803574  0.7688561988195353  1.0000
  H   H8        1.0  0.03886379508609081  0.358304789776984  0.2781270767864068  1.0000
  H   H9        1.0  0.07254270979598404  0.2444512878220384  0.056397770758832566  1.0000
  H   H10       1.0  0.060902086711438014  0.8242741622611776  0.28799432865288854  1.0000
  H   H11       1.0  0.040312747513064434  0.7030998186371046  0.6551826897940165  1.0000
  H   H12       1.0  0.12454247605911334  0.8566839826531908  0.823381635500755  1.0000
  C   C21       1.0  0.03398745505676756  0.5840305591486301  0.9913626734534455  1.0000
  C   C22       1.0  0.10007656689301875  0.5142462852183101  0.06990190660450413  1.0000
  C   C23       1.0  0.1604950132641586  0.4342600284546507  0.0012609210514289385  1.0000
  C   C24       1.0  0.15644452492315186  0.4213015965027705  0.8519198345585175  1.0000
  C   C25       1.0  0.0916453193796225  0.4935065007844604  0.7718320978372759  1.0000
  C   C26       1.0  0.031016114427928402  0.5766830753358231  0.8390377969799103  1.0000
  C   C27       1.0  0.22094307500332488  0.33434259714371306  0.7812324505667192  1.0000
  N   N3        1.0  0.2915866126738613  0.28317133619262647  0.8493859223702773  1.0000
  C   C28       1.0  0.3321635803235299  0.21056957427624476  0.7500251420129116  1.0000
  C   C29       1.0  0.28592749028756126  0.21827278695649713  0.6243461706452553  1.0000
  N   N4        1.0  0.21597735359626358  0.29604937100627593  0.6441307220977386  1.0000
  H   H13       1.0  0.9449041990279323  0.7670277733574624  0.2580794209729431  1.0000
  H   H14       1.0  0.10394057788236899  0.5184940050549525  0.18607623119288963  1.0000
  H   H15       1.0  0.20985885465049348  0.3805889148105622  0.06602579699364997  1.0000
  H   H16       1.0  0.08952586715921468  0.48962869032936923  0.655710678679827  1.0000
  H   H17       1.0  0.8993169501342068  0.6595377008368943  0.553031823942685  1.0000
  H   H18       1.0  0.3917651436662799  0.15502308276946855  0.7684606401707406  1.0000
  H   H19       1.0  0.16817856045284096  0.3184397393297305  0.5683184012089937  1.0000
  Zn  Zn1       1.0  0.9396650923829523  0.5813966444146991  0.4148928793323452  1.0000
  Zn  Zn2       1.0  0.1253303635246339  0.5793163891661544  0.41550694201286476  1.0000
  C   C30       1.0  0.031541003237948395  0.5723280062676412  0.6787951821835796  1.0000
  C   C31       1.0  0.033456490675312534  0.5883868225963751  0.1516047919286263  1.0000
  C   C32       1.0  0.034116107820336444  0.8437420331117732  0.41008575275385883  1.0000
  C   C33       1.0  0.030881311953174992  0.31697106351679727  0.4203142939075437  1.0000
  O   O2        1.0  0.10373725879057732  0.5890530881624447  0.20561652909037154  1.0000
  O   O3        1.0  0.10217587477093909  0.5700817909960283  0.6252490862798856  1.0000
  O   O4        1.0  0.10425434920622445  0.7892520478053497  0.408264321336534  1.0000
  O   O5        1.0  0.10165872144225718  0.36988284331517374  0.4226011856309695  1.0000
  O   O6        1.0  0.96333667110692  0.7908301909772038  0.40779863549710305  1.0000
  O   O7        1.0  0.9612582074529759  0.5716616671148529  0.6247833276741204  1.0000
  O   O8        1.0  0.9628195973065978  0.5906329290776269  0.20514903508733995  1.0000
  O   O9        1.0  0.960741059512904  0.37146267297983004  0.42213379981355414  1.0000
