data_image0
_chemical_formula_structural       NC5OC5NC4H8C6ClH5C6NCH7Zn2C4O8
_chemical_formula_sum              "N3 C31 O9 H20 Cl1 Zn2"
_cell_length_a       19.189071930511275
_cell_length_b       10.30297070629231
_cell_length_c       9.273390368590327
_cell_angle_alpha    86.16779528597041
_cell_angle_beta     89.96896470301299
_cell_angle_gamma    89.98947815314023

_space_group_name_H-M_alt    "P 1"
_space_group_IT_number       1

loop_
  _space_group_symop_operation_xyz
  'x, y, z'

loop_
  _atom_site_type_symbol
  _atom_site_label
  _atom_site_symmetry_multiplicity
  _atom_site_fract_x
  _atom_site_fract_y
  _atom_site_fract_z
  _atom_site_occupancy
  N   N1        1.0  0.6563161928630628  0.4054684558732468  0.40970198614686154  1.0000
  C   C1        1.0  0.6018600992651926  0.4513777171008196  0.3894023851613628  1.0000
  C   C2        1.0  0.5341237410799987  0.508481184615643  0.3641527320298954  1.0000
  C   C3        1.0  0.5244351126226628  0.6042976695009401  0.2515995655227956  1.0000
  C   C4        1.0  0.4586365448020776  0.6598407379922886  0.22721216161478752  1.0000
  C   C5        1.0  0.4018679481465602  0.6194494309773124  0.313873810805233  1.0000
  O   O1        1.0  0.336898536441529  0.67859888904738  0.28697282814992886  1.0000
  C   C6        1.0  0.2719269627462571  0.6192539489743161  0.31324764099507835  1.0000
  C   C7        1.0  0.2151606229628621  0.6971395985458035  0.34683128350473313  1.0000
  C   C8        1.0  0.1493600149679045  0.6418909415271952  0.3721627727302414  1.0000
  C   C9        1.0  0.1396670109159646  0.5080228356540302  0.36268318129646393  1.0000
  C   C10       1.0  0.07192842285195172  0.45112517820662945  0.3885925999174058  1.0000
  N   N2        1.0  0.01747058850691641  0.40538144289652006  0.4094231067246856  1.0000
  C   C11       1.0  0.19596028059918771  0.4298086533757608  0.32697158198575504  1.0000
  C   C12       1.0  0.261752024266707  0.4850972018764794  0.30168852061086543  1.0000
  C   C13       1.0  0.4120385902229802  0.5245524743809664  0.42822309778474005  1.0000
  C   C14       1.0  0.4778282397201493  0.4690059542609344  0.452678620147769  1.0000
  H   H1        1.0  0.5676884137844054  0.6361426370222751  0.1829119363652414  1.0000
  H   H2        1.0  0.45160703795982965  0.7340220807503941  0.14012617702592076  1.0000
  H   H3        1.0  0.22219347919423424  0.8007515411308113  0.3541307512695533  1.0000
  H   H4        1.0  0.10610837521349321  0.7034950589508058  0.39891433763865525  1.0000
  H   H5        1.0  0.188921037598499  0.32633310000450044  0.3179243148986645  1.0000
  H   H6        1.0  0.3042948476661194  0.42366548303148166  0.2711483397315435  1.0000
  H   H7        1.0  0.3694939988038675  0.49491020484763815  0.499633392953362  1.0000
  H   H8        1.0  0.484864184581958  0.3958837041634462  0.540975963119309  1.0000
  C   C15       1.0  0.8368967240175157  0.024177576842899125  0.4095687521580411  1.0000
  C   C16       1.0  0.9088535415671284  0.021282771260586756  0.4372741459571456  1.0000
  C   C17       1.0  0.9445565938851758  0.9028896011204133  0.45102072214370703  1.0000
  C   C18       1.0  0.9088535410159538  0.7861748019423229  0.4372740781734128  1.0000
  C   C19       1.0  0.8368967314483244  0.7866625194431301  0.40956883465839966  1.0000
  C   C20       1.0  0.8012690796704984  0.9062574806011069  0.39585115740095445  1.0000
  Cl  Cl1       1.0  0.034447803156658637  0.9007768152341854  0.4856312605918083  1.0000
  H   H9        1.0  0.8097918511866803  0.35257111000968644  0.3991318086322393  1.0000
  H   H10       1.0  0.9374725166722802  0.11065670005357964  0.44829313065289605  1.0000
  H   H11       1.0  0.9374724891213395  0.6954555062414318  0.448293027122661  1.0000
  H   H12       1.0  0.7457737983224217  0.9075617149621961  0.37448388049865833  1.0000
  H   H13       1.0  0.8097918477674484  0.4595431459376795  0.3991320807534062  1.0000
  C   C21       1.0  0.8369290347842107  0.4013714930216948  0.9863229703225547  1.0000
  C   C22       1.0  0.900933743171072  0.39877649458768305  0.05987603185105428  1.0000
  C   C23       1.0  0.9638220656102565  0.40825051492943776  0.9844126817167401  1.0000
  C   C24       1.0  0.9643035234390223  0.4206708641575723  0.8327843216857662  1.0000
  C   C25       1.0  0.9007235745228221  0.4210762989644383  0.7584213301051967  1.0000
  C   C26       1.0  0.8368644520685512  0.40946859106802136  0.8328145549502959  1.0000
  N   N3        1.0  0.0283696788988146  0.4316394348037944  0.7519465789792416  1.0000
  C   C27       1.0  0.09717518771980438  0.43177587874300327  0.8188816453865345  1.0000
  H   H14       1.0  0.7269353896073709  0.3390349953694325  0.272247900570999  1.0000
  H   H15       1.0  0.011836554201214657  0.4070443174786198  0.04549660946996802  1.0000
  H   H16       1.0  0.6744591826416609  0.3086457346821545  0.7374488764476608  1.0000
  H   H17       1.0  0.026108569815760603  0.4402441792921741  0.639072491850538  1.0000
  H   H18       1.0  0.10169789096399917  0.5150572913517759  0.8883466900244897  1.0000
  H   H19       1.0  0.10567562216820181  0.338971326676529  0.8844290175173967  1.0000
  H   H20       1.0  0.1380144310684446  0.4415807823805673  0.7339595429665255  1.0000
  Zn  Zn1       1.0  0.760537558226465  0.4054399619263534  0.4096298245091241  1.0000
  Zn  Zn2       1.0  0.9132492396227946  0.40539946868454835  0.4095070527049145  1.0000
  C   C28       1.0  0.8368750902753656  0.40276601603086787  0.6728095282215043  1.0000
  C   C29       1.0  0.836913375169958  0.40807505358866497  0.14632748911506296  1.0000
  C   C30       1.0  0.836893593348155  0.6424816673220659  0.40382533906801654  1.0000
  C   C31       1.0  0.8368948199814363  0.16835784324070935  0.41531175515188135  1.0000
  O   O2        1.0  0.8948614068864884  0.41030379884169976  0.1999798760210656  1.0000
  O   O3        1.0  0.8948316912625054  0.40050555396513216  0.6190635454599596  1.0000
  O   O4        1.0  0.8948458513753849  0.5940789885434834  0.4018569102388889  1.0000
  O   O5        1.0  0.894847194671704  0.21673037253071925  0.41718640321696676  1.0000
  O   O6        1.0  0.7789395510645539  0.5941090580953421  0.4019504740313864  1.0000
  O   O7        1.0  0.7789253909544056  0.40053718258890797  0.6191570324034421  1.0000
  O   O8        1.0  0.7789551067569771  0.41033536564839185  0.20007163011148354  1.0000
  O   O9        1.0  0.7789408945310958  0.21676193108519978  0.4172782653668694  1.0000
