data_image0
_chemical_formula_structural       NC5NC3F3CH3C9H10C6SCH7Zn2C4O8
_chemical_formula_sum              "N2 C29 F3 H20 S1 Zn2 O8"
_cell_length_a       13.85151926108384
_cell_length_b       10.297183801781406
_cell_length_c       10.302812801239593
_cell_angle_alpha    85.53397989939683
_cell_angle_beta     89.99987069690108
_cell_angle_gamma    89.99762972311773

_space_group_name_H-M_alt    "P 1"
_space_group_IT_number       1

loop_
  _space_group_symop_operation_xyz
  'x, y, z'

loop_
  _atom_site_type_symbol
  _atom_site_label
  _atom_site_symmetry_multiplicity
  _atom_site_fract_x
  _atom_site_fract_y
  _atom_site_fract_z
  _atom_site_occupancy
  N   N1        1.0  0.9090407133935096  0.4216837005627503  0.5672940553048086  1.0000
  C   C1        1.0  0.8367113564285344  0.4135047208801473  0.6235552623339031  1.0000
  C   C2        1.0  0.7467279474307834  0.4033289485280458  0.6935522524236145  1.0000
  C   C3        1.0  0.6592017466869612  0.4116353893519098  0.6255308682558721  1.0000
  C   C4        1.0  0.5716759579273034  0.40332893668677555  0.6935522343643246  1.0000
  C   C5        1.0  0.4816921043086651  0.41350473542738575  0.623555347044473  1.0000
  N   N2        1.0  0.40936252778113813  0.42168366643343463  0.5672941502913131  1.0000
  C   C6        1.0  0.5716671346721979  0.38581709445883233  0.8297539418207704  1.0000
  C   C7        1.0  0.6592024961885553  0.374637354183803  0.8989132924399142  1.0000
  C   C8        1.0  0.6592027192233432  0.3606058205341698  0.04573657238689665  1.0000
  F   F1        1.0  0.7401391235441013  0.29321452862709796  0.092239934712944  1.0000
  F   F2        1.0  0.5782703088840829  0.2932145010638181  0.09224002415222343  1.0000
  F   F3        1.0  0.6591988654468193  0.4829439581382944  0.09225937071417843  1.0000
  C   C9        1.0  0.7467374615157304  0.3858170086568591  0.8297539595268888  1.0000
  H   H1        1.0  0.6592014891900208  0.42533798323570315  0.5200786097994092  1.0000
  H   H2        1.0  0.5035439451860433  0.3811528594490463  0.8816775765367428  1.0000
  H   H3        1.0  0.814860698707564  0.3811527865771729  0.8816775396084594  1.0000
  C   C10       1.0  0.15920961369944853  0.04020813669027291  0.567478037177408  1.0000
  C   C11       1.0  0.15639525707712412  0.050068121612610886  0.43086041755735427  1.0000
  C   C12       1.0  0.15495315657429504  0.9385031928324591  0.3608672159040349  1.0000
  C   C13       1.0  0.1563839472852242  0.8148970287878128  0.4303309078931976  1.0000
  C   C14       1.0  0.15920287056972837  0.803149263275386  0.567121328838208  1.0000
  C   C15       1.0  0.16059638596015094  0.9162809455896799  0.6348019568756087  1.0000
  C   C16       1.0  0.15190896405198664  0.9585996575632356  0.21310561350839974  1.0000
  C   C17       1.0  0.09537961306463409  0.859882744645445  0.14083408950946885  1.0000
  C   C18       1.0  0.20536540327803476  0.8601909558301671  0.13670981456139808  1.0000
  H   H4        1.0  0.1603032424953803  0.3639472222275355  0.6201211880510424  1.0000
  H   H5        1.0  0.1553089628779354  0.14529698512560296  0.3781184789748897  1.0000
  H   H6        1.0  0.15532547713195433  0.7272973240924094  0.379053602740153  1.0000
  H   H7        1.0  0.1627672373131462  0.9079463173039891  0.740205319284537  1.0000
  H   H8        1.0  0.1645141985885233  0.5737445921914444  0.8254799169378974  1.0000
  H   H9        1.0  0.15093139338490968  0.059315222529788825  0.16561243693202618  1.0000
  H   H10       1.0  0.06316452200448343  0.7762452354689418  0.1999169128799276  1.0000
  H   H11       1.0  0.06132043274580393  0.9007557169566052  0.04897897309487509  1.0000
  H   H12       1.0  0.23996077351365952  0.7767414681111106  0.1932880401218895  1.0000
  H   H13       1.0  0.23558807707739726  0.9012416966873403  0.04244304306536462  1.0000
  C   C19       1.0  0.15920626262208343  0.4216787056082767  0.18605123609886265  1.0000
  C   C20       1.0  0.12664717308667295  0.5512252592265519  0.17479338850745282  1.0000
  C   C21       1.0  0.11019790939668517  0.6154919330004955  0.05221634329181434  1.0000
  C   C22       1.0  0.1266470860539992  0.551225122861223  0.93964221888195  1.0000
  C   C23       1.0  0.1592062000023742  0.4216786968538955  0.9485481397324875  1.0000
  C   C24       1.0  0.17529689756550432  0.35752713697582084  0.07229228292752343  1.0000
  S   S1        1.0  0.06879713081364658  0.7811029950543167  0.03932758789680135  1.0000
  C   C25       1.0  0.941809290660282  0.7357160706266941  0.042860930957324454  1.0000
  H   H14       1.0  0.17144033573656556  0.3728422354276036  0.517608146418923  1.0000
  H   H15       1.0  0.11371338446073498  0.602681519960149  0.2608883819910679  1.0000
  H   H16       1.0  0.11371319117855405  0.6026813328310434  0.8455380690964382  1.0000
  H   H17       1.0  0.20039366014962834  0.25759352626358645  0.08006954489132911  1.0000
  H   H18       1.0  0.9246907640594256  0.6779260613949061  0.9592416246140654  1.0000
  H   H19       1.0  0.9246911775262  0.6779273742408629  0.13547631603382704  1.0000
  H   H20       1.0  0.8971272734405235  0.8253802365662017  0.03588250304907015  1.0000
  Zn  Zn1       1.0  0.05342278168774662  0.42168022274043615  0.5673015675065651  1.0000
  Zn  Zn2       1.0  0.2649804421243054  0.42167654850099506  0.5672972285764137  1.0000
  C   C26       1.0  0.1592041064179493  0.4165035679525906  0.8044223307236358  1.0000
  C   C27       1.0  0.1592014275826442  0.42685484232649346  0.33017659197186955  1.0000
  C   C28       1.0  0.15919916269118958  0.6589371469396597  0.5620152387970614  1.0000
  C   C29       1.0  0.15920629913338447  0.18441970260180152  0.572583753846345  1.0000
  O   O1        1.0  0.23948483454311487  0.42858493941331505  0.3785447340523802  1.0000
  O   O2        1.0  0.2394880686264904  0.414769702206602  0.7560505222257365  1.0000
  O   O3        1.0  0.23948299422390654  0.6105378832484973  0.560305079815353  1.0000
  O   O4        1.0  0.23948983675532443  0.2328167676654951  0.574290079115988  1.0000
  O   O5        1.0  0.07891331486248054  0.6105400035786039  0.5603087169616419  1.0000
  O   O6        1.0  0.0789183892468366  0.41477338327699953  0.7560540894187757  1.0000
  O   O7        1.0  0.07891515522818884  0.4285885752151224  0.37854674035906055  1.0000
  O   O8        1.0  0.07892015743652549  0.23282039417589512  0.5742921827640958  1.0000
