data_image0
_chemical_formula_structural       NC9NC3SH6C7F3H5C12H10Zn2C4O8
_chemical_formula_sum              "N2 C35 S1 H21 F3 Zn2 O8"
_cell_length_a       16.77567553997237
_cell_length_b       9.272718291674593
_cell_length_c       10.299141136925906
_cell_angle_alpha    85.97515333800408
_cell_angle_beta     90.41956326603899
_cell_angle_gamma    90.46558260785916

_space_group_name_H-M_alt    "P 1"
_space_group_IT_number       1

loop_
  _space_group_symop_operation_xyz
  'x, y, z'

loop_
  _atom_site_type_symbol
  _atom_site_label
  _atom_site_symmetry_multiplicity
  _atom_site_fract_x
  _atom_site_fract_y
  _atom_site_fract_z
  _atom_site_occupancy
  N   N1        1.0  0.7438082045449589  0.5987235126339587  0.5852480970458698  1.0000
  C   C1        1.0  0.6888464385091251  0.6534700321075353  0.6272276956308009  1.0000
  C   C2        1.0  0.6206381014579491  0.7214068432621915  0.6793211695129536  1.0000
  C   C3        1.0  0.6223982438974186  0.8191683215045934  0.7750555490172777  1.0000
  C   C4        1.0  0.5465721696647265  0.8674183757035456  0.8069017812712682  1.0000
  C   C5        1.0  0.4847952542361273  0.8074414164169875  0.7358690635991549  1.0000
  C   C6        1.0  0.39818927486658623  0.8363720962295197  0.7469200145914101  1.0000
  C   C7        1.0  0.34171812317559636  0.7480388236118649  0.688020931580811  1.0000
  C   C8        1.0  0.2599706798559512  0.7747380370210422  0.6979998354006436  1.0000
  C   C9        1.0  0.2028437890326028  0.6834428165349113  0.6376849347672209  1.0000
  N   N2        1.0  0.1569307410781346  0.6100545421014516  0.5892006634012403  1.0000
  C   C10       1.0  0.23386309928091253  0.8901186069867291  0.7667190820671785  1.0000
  C   C11       1.0  0.2892417613150016  0.9786282696461243  0.8251577377657922  1.0000
  C   C12       1.0  0.37082997970562376  0.9523322136364679  0.8154762268687131  1.0000
  S   S1        1.0  0.5258165077417117  0.6941424550002893  0.6339711887820294  1.0000
  H   H1        1.0  0.6766686284296419  0.8545251342553821  0.8210711553660727  1.0000
  H   H2        1.0  0.5380183989760899  0.9427745248676789  0.8809099844767883  1.0000
  H   H3        1.0  0.360870170442615  0.6578056662754564  0.6349472703000785  1.0000
  H   H4        1.0  0.17079284864860528  0.911717158872819  0.7749563277347824  1.0000
  H   H5        1.0  0.2689117518610913  0.06818266925059607  0.877909226504801  1.0000
  H   H6        1.0  0.4119890075506428  0.02407648694985686  0.8607324589946894  1.0000
  C   C13       1.0  0.9521086067705067  0.18105484358115814  0.584372124811207  1.0000
  C   C14       1.0  0.9034961103777933  0.26105868288399536  0.49415401664007774  1.0000
  C   C15       1.0  0.8492456712641379  0.1920607706287272  0.41412938193918314  1.0000
  C   C16       1.0  0.845719722579315  0.040673311764320326  0.4216884972550536  1.0000
  C   C17       1.0  0.8943911370206508  0.9597127916832087  0.5090968483849978  1.0000
  C   C18       1.0  0.9486380006959121  0.02771234286011626  0.5900879384499148  1.0000
  C   C19       1.0  0.7991812480763266  0.27962437523148004  0.3156350273545813  1.0000
  F   F1        1.0  0.7787094074733021  0.41046920000318027  0.3626391976196752  1.0000
  F   F2        1.0  0.7295907492574383  0.20632264896961092  0.2878353277415364  1.0000
  F   F3        1.0  0.8421562772607599  0.3056163580990465  0.20228285403097931  1.0000
  H   H7        1.0  0.04682546270631782  0.26226921959291216  0.865561358211316  1.0000
  H   H8        1.0  0.9066765386580059  0.37811639848540046  0.48813977745119835  1.0000
  H   H9        1.0  0.8058603598112206  0.9845045308363276  0.3588540071704267  1.0000
  H   H10       1.0  0.8911380707868977  0.8428539997405284  0.5108130960462701  1.0000
  H   H11       1.0  0.11980137182608819  0.916450500676247  0.7480392128037829  1.0000
  C   C20       1.0  0.950282198807846  0.604504142716691  0.20583697540188384  1.0000
  C   C21       1.0  0.033483561587204  0.6223135337583335  0.20492318528605646  1.0000
  C   C22       1.0  0.07576377679967305  0.6312197570332155  0.08732617905203854  1.0000
  C   C23       1.0  0.03371799934475739  0.6220761600732282  0.9696580684082393  1.0000
  C   C24       1.0  0.9504644464173059  0.6042630465584772  0.9686230765602466  1.0000
  C   C25       1.0  0.9092591839874629  0.5955843445868616  0.08716394533956694  1.0000
  C   C26       1.0  0.16378243980949447  0.6500621168446277  0.08740425693239294  1.0000
  C   C27       1.0  0.21154651097293958  0.5725327898628327  0.005102585938637997  1.0000
  C   C28       1.0  0.29438706061372377  0.5904473222368245  0.005415158719345388  1.0000
  C   C29       1.0  0.3304219899426666  0.6857307211162627  0.08755823397266438  1.0000
  C   C30       1.0  0.28368923261926815  0.7632978983405239  0.16962515628758035  1.0000
  C   C31       1.0  0.2008263125251324  0.7457442260567266  0.16978464008562622  1.0000
  H   H12       1.0  0.9182730309523017  0.5977267578593617  0.5336595614357584  1.0000
  H   H13       1.0  0.06572297603603072  0.6273135133191112  0.2960119717506293  1.0000
  H   H14       1.0  0.06588017692323023  0.630853154893623  0.8785935518016367  1.0000
  H   H15       1.0  0.8450838438844696  0.5818515537933595  0.08715288327389281  1.0000
  H   H16       1.0  0.7932721680770571  0.5715548116042268  0.7593199647536343  1.0000
  H   H17       1.0  0.18494478706048922  0.4967588290300753  0.9418271945212874  1.0000
  H   H18       1.0  0.3306857747478753  0.5300951816624084  0.942117318919335  1.0000
  H   H19       1.0  0.39455467611453043  0.6994579153447653  0.0876176507334836  1.0000
  H   H20       1.0  0.3116669976929214  0.8374078609144868  0.23298237022487012  1.0000
  H   H21       1.0  0.16566822673863557  0.8082981895609858  0.2330040046309747  1.0000
  Zn  Zn1       1.0  0.8630264650952405  0.601989551711523  0.5863962043813997  1.0000
  Zn  Zn2       1.0  0.03771252631756261  0.6067767395112779  0.5880631424625391  1.0000
  C   C32       1.0  0.9504517402211116  0.5985655896211557  0.8244013575511636  1.0000
  C   C33       1.0  0.9502891513323933  0.6102025727686184  0.3500581472497779  1.0000
  C   C34       1.0  0.949288690808347  0.867677582320515  0.5838319559940588  1.0000
  C   C35       1.0  0.9514521482533029  0.34108884641743187  0.590627605788401  1.0000
  O   O1        1.0  0.016583960293419908  0.6139254415783907  0.39909264185483107  1.0000
  O   O2        1.0  0.01673961413616598  0.5984749981715851  0.7766316491677948  1.0000
  O   O3        1.0  0.015799543695273807  0.8157863107449796  0.5823701569335764  1.0000
  O   O4        1.0  0.017523971060256383  0.3966141377147385  0.5933540362090299  1.0000
  O   O5        1.0  0.883214960740759  0.8121521518760015  0.5811053100592438  1.0000
  O   O6        1.0  0.8841550240617189  0.5948425713223724  0.775366744736279  1.0000
  O   O7        1.0  0.8839993701048857  0.6102929649882918  0.3978261755852386  1.0000
  O   O8        1.0  0.8849393809339903  0.3929816507828357  0.5920876672437927  1.0000
