data_image0
_chemical_formula_structural       NC9NC3OH6C6BrH3C6OCH7Zn2C4O8
_chemical_formula_sum              "N2 C29 O10 H16 Br1 Zn2"
_cell_length_a       15.78231758774541
_cell_length_b       10.302969083221269
_cell_length_c       9.273891588657152
_cell_angle_alpha    86.0762880013574
_cell_angle_beta     89.76748324947235
_cell_angle_gamma    89.63144763104106

_space_group_name_H-M_alt    "P 1"
_space_group_IT_number       1

loop_
  _space_group_symop_operation_xyz
  'x, y, z'

loop_
  _atom_site_type_symbol
  _atom_site_label
  _atom_site_symmetry_multiplicity
  _atom_site_fract_x
  _atom_site_fract_y
  _atom_site_fract_z
  _atom_site_occupancy
  N   N1        1.0  0.8030634335988975  0.3998759277186008  0.41279248295227067  1.0000
  C   C1        1.0  0.7544447175614574  0.318056512803504  0.4395177544400357  1.0000
  C   C2        1.0  0.6940827996750725  0.2164987340590865  0.4726907013795467  1.0000
  C   C3        1.0  0.713610526264173  0.08892507933933547  0.5142731340160067  1.0000
  C   C4        1.0  0.6368143163287838  0.0270985671370505  0.5345083507329238  1.0000
  C   C5        1.0  0.5751333258154555  0.12151804598795078  0.5037784072353266  1.0000
  C   C6        1.0  0.48202358464086364  0.10406215811966638  0.509561752721669  1.0000
  C   C7        1.0  0.42839206283052744  0.21109697815449138  0.4745423461092106  1.0000
  C   C8        1.0  0.3401701684874415  0.19678363341852464  0.4792924982014816  1.0000
  C   C9        1.0  0.28584548395239145  0.3069326124167162  0.4432450313215805  1.0000
  N   N2        1.0  0.24218132195084202  0.3954781687250891  0.4142660897021346  1.0000
  C   C10       1.0  0.3048983322918038  0.07527618072713982  0.5191164335153773  1.0000
  C   C11       1.0  0.3575991406013331  0.9684626916161281  0.5540682742996244  1.0000
  C   C12       1.0  0.4456349540229672  0.9823828142991669  0.5494472048666554  1.0000
  O   O1        1.0  0.6117102155900024  0.23341651948735764  0.4672512628075258  1.0000
  H   H1        1.0  0.7760256380541216  0.04590220601690764  0.5282397855028562  1.0000
  H   H2        1.0  0.6279746482599415  0.9254385913293158  0.5676611977347343  1.0000
  H   H3        1.0  0.45509806043685413  0.30565127864709485  0.4435470227150782  1.0000
  H   H4        1.0  0.23676899888661224  0.0631535023352279  0.5231372097001663  1.0000
  H   H5        1.0  0.3301635130229492  0.8745548172276776  0.5848521677131766  1.0000
  H   H6        1.0  0.48463156726419576  0.8977790834403849  0.5771406805120787  1.0000
  C   C13       1.0  0.02262639228652663  0.016429555937287565  0.41353556539425895  1.0000
  C   C14       1.0  0.11039269190311907  0.012834113870760165  0.4381219295012139  1.0000
  C   C15       1.0  0.15392950107828196  0.8941127289074592  0.4503179025125421  1.0000
  C   C16       1.0  0.11039275932809128  0.777751751375723  0.43812165622554633  1.0000
  C   C17       1.0  0.022626405627200974  0.7789145723850116  0.4135354698790765  1.0000
  C   C18       1.0  0.9791670769594827  0.8988501634326498  0.40136107925775105  1.0000
  Br  Br1       1.0  0.27330677520543856  0.890876667223918  0.48375998039521995  1.0000
  H   H7        1.0  0.14533079568309282  0.10188633102526291  0.4479094547924485  1.0000
  H   H8        1.0  0.14533089751589934  0.6868053905942585  0.4479088058479705  1.0000
  H   H9        1.0  0.9114783307011084  0.9006850134975091  0.38239932236198654  1.0000
  C   C19       1.0  0.024014483151156826  0.3942197826965159  0.9902648493053946  1.0000
  C   C20       1.0  0.09340398093467622  0.4483609305240042  0.05907140158741808  1.0000
  C   C21       1.0  0.15798727817999492  0.512244694375833  0.979478378113315  1.0000
  C   C22       1.0  0.15341202025499345  0.5223103130220732  0.8280224104699219  1.0000
  C   C23       1.0  0.08580264943463062  0.4673652336513161  0.7578796341601697  1.0000
  C   C24       1.0  0.021238296978134386  0.4011243149565966  0.8368061728533446  1.0000
  O   O2        1.0  0.2250627937312668  0.5648105455226398  0.054910073021694705  1.0000
  C   C25       1.0  0.2948371015251161  0.632437347790106  0.988067843783885  1.0000
  H   H10       1.0  0.8224737178694698  0.31649905068715367  0.10060576413705791  1.0000
  H   H11       1.0  0.20222183805029004  0.5713971684414594  0.7632640656923696  1.0000
  H   H12       1.0  0.08511896641499893  0.47406320040408884  0.6407961629376091  1.0000
  H   H13       1.0  0.8868373523209532  0.3436386951446764  0.5609125067952283  1.0000
  H   H14       1.0  0.2720925935554841  0.7205203929805187  0.9235959293199619  1.0000
  H   H15       1.0  0.3301666303422166  0.5676504133177283  0.9177737426904748  1.0000
  H   H16       1.0  0.3382104190684678  0.6630350586901115  0.07305693805058122  1.0000
  Zn  Zn1       1.0  0.9297833397893656  0.3986034294310227  0.41322605081755  1.0000
  Zn  Zn2       1.0  0.115461348626898  0.39674016701934645  0.41384430459318833  1.0000
  C   C26       1.0  0.02176117936762  0.3946472362433633  0.6767917487731651  1.0000
  C   C27       1.0  0.023485536182813464  0.4006979791120408  0.15027875486014425  1.0000
  C   C28       1.0  0.02264087901692057  0.6347418833511097  0.407791703367815  1.0000
  C   C29       1.0  0.02260577292254618  0.16060177346101012  0.4192788769007181  1.0000
  O   O3        1.0  0.09377185343290723  0.4021593586956549  0.20421550739583  1.0000
  O   O4        1.0  0.09240017588922583  0.39177070080744636  0.6233238216266401  1.0000
  O   O5        1.0  0.09310958968009903  0.5856501865143484  0.40610437857882764  1.0000
  O   O6        1.0  0.09306237663712569  0.20827988203035175  0.4214348421592582  1.0000
  O   O7        1.0  0.9521822484163714  0.5870637150572089  0.405635513032919  1.0000
  O   O8        1.0  0.951472834873698  0.3931857885307824  0.6228548792269466  1.0000
  O   O9        1.0  0.9528445181568246  0.4035743870425017  0.20374483204145521  1.0000
  O   O10       1.0  0.952135041003184  0.20969490197279117  0.4209642748707072  1.0000
