data_image0
_chemical_formula_structural       NC5NC3F3CH3C6NCH9C7ONH5Zn2C4O8
_chemical_formula_sum              "N4 C27 F3 H17 O9 Zn2"
_cell_length_a       13.85151926108384
_cell_length_b       9.273386996610926
_cell_length_c       9.273042158839658
_cell_angle_alpha    86.06883900085258
_cell_angle_beta     90.09323963097282
_cell_angle_gamma    89.3985898819531

_space_group_name_H-M_alt    "P 1"
_space_group_IT_number       1

loop_
  _space_group_symop_operation_xyz
  'x, y, z'

loop_
  _atom_site_type_symbol
  _atom_site_label
  _atom_site_symmetry_multiplicity
  _atom_site_fract_x
  _atom_site_fract_y
  _atom_site_fract_z
  _atom_site_occupancy
  N   N1        1.0  0.8963699996031239  0.5620993101774543  0.40754838545493177  1.0000
  C   C1        1.0  0.8241677497490891  0.553674087481355  0.47001971680353827  1.0000
  C   C2        1.0  0.7343424798043362  0.5431919589479473  0.5477429898829422  1.0000
  C   C3        1.0  0.6466749039886648  0.5516212008237809  0.4722154810092903  1.0000
  C   C4        1.0  0.5592904903725306  0.543191945586394  0.547742969849379  1.0000
  C   C5        1.0  0.4691484976117549  0.5536741046275033  0.4700198108289868  1.0000
  N   N2        1.0  0.396691814363337  0.5620992733859038  0.40754849095291723  1.0000
  C   C6        1.0  0.5595715858839881  0.5253369775799195  0.698975627722483  1.0000
  C   C7        1.0  0.6472719463653936  0.5137300938085894  0.7757702899475796  1.0000
  C   C8        1.0  0.6475470211991607  0.49986440892794803  0.9387902930177693  1.0000
  F   F1        1.0  0.7290598765215605  0.425566682125859  0.9905068183986011  1.0000
  F   F2        1.0  0.5671910621768143  0.42556665256136283  0.990506917729447  1.0000
  F   F3        1.0  0.6466445435346952  0.636271422594731  0.9902777058662429  1.0000
  C   C9        1.0  0.734641913414599  0.5253368824993843  0.6989756474929758  1.0000
  H   H1        1.0  0.6464490590955768  0.5656054073279069  0.3551255297085034  1.0000
  H   H2        1.0  0.49154328026095684  0.5207643366384227  0.7566267937154794  1.0000
  H   H3        1.0  0.8028600343073462  0.5207642552785039  0.7566267528144235  1.0000
  C   C10       1.0  0.149504980639646  0.1384527786398806  0.40825668492639244  1.0000
  C   C11       1.0  0.16632376376581415  0.22055556163943946  0.27793464473671947  1.0000
  C   C12       1.0  0.17405263928261164  0.1546797713554109  0.14760454756424735  1.0000
  C   C13       1.0  0.1650782645694107  0.004343920204931344  0.14426425274873056  1.0000
  C   C14       1.0  0.14996033285669966  0.9212734539363159  0.27413358355678574  1.0000
  C   C15       1.0  0.14356612978983763  0.9857348451259402  0.4068526530438501  1.0000
  N   N3        1.0  0.17198828608651012  0.9334033603831526  0.011243361694042164  1.0000
  C   C16       1.0  0.18792786163773695  0.009818220945873262  0.8705909837025296  1.0000
  H   H4        1.0  0.16946919644333971  0.40309020344183805  0.6448903249016611  1.0000
  H   H5        1.0  0.17124604164751323  0.33718282745124717  0.2761663333287412  1.0000
  H   H6        1.0  0.18612786862027453  0.22225056213027772  0.049700169520376924  1.0000
  H   H7        1.0  0.1454012178055475  0.8048484324477977  0.27185980888345984  1.0000
  H   H8        1.0  0.17946892571902875  0.8580709176324254  0.7579077300427823  1.0000
  H   H9        1.0  0.16516600006217538  0.8210677223711943  0.014232193857354641  1.0000
  H   H10       1.0  0.1280538373656106  0.08812798214781403  0.8455481734374448  1.0000
  H   H11       1.0  0.25780471456748355  0.0673724180465658  0.8708235745761085  1.0000
  H   H12       1.0  0.19027479942515776  0.9314827751613318  0.7852625865348961  1.0000
  C   C17       1.0  0.14610517282915758  0.5576351978893175  0.9842971380925106  1.0000
  C   C18       1.0  0.05736995575900128  0.5668218540878613  0.05696271332365388  1.0000
  C   C19       1.0  0.9702802919489159  0.5899628385365607  0.9806681954301077  1.0000
  C   C20       1.0  0.9724732861078953  0.602174645783712  0.829149258627293  1.0000
  C   C21       1.0  0.05964290116808326  0.590869880275481  0.7554777625884661  1.0000
  C   C22       1.0  0.1469659870342268  0.5665524056700659  0.8308121998446265  1.0000
  C   C23       1.0  0.8779572905018379  0.5999220985073372  0.060511702958519153  1.0000
  O   O1        1.0  0.8718989421359404  0.5440943179222504  0.1879748384473201  1.0000
  N   N4        1.0  0.7953254480741528  0.6731116460391582  0.9968539475960254  1.0000
  H   H13       1.0  0.37994701567808165  0.6127402582567272  0.08416590026317805  1.0000
  H   H14       1.0  0.9067226080225304  0.6164386047386098  0.7665024820468482  1.0000
  H   H15       1.0  0.30463005514397135  0.5969748122158696  0.5478400174691767  1.0000
  H   H16       1.0  0.7995380830253133  0.7354092394818339  0.8990848841097474  1.0000
  H   H17       1.0  0.7300748958572908  0.6729492675010589  0.05309667170104171  1.0000
  Zn  Zn1       1.0  0.04075210341763481  0.5620955357266331  0.4075567300074392  1.0000
  Zn  Zn2       1.0  0.25230978752188893  0.5620914045474351  0.407551917833457  1.0000
  C   C24       1.0  0.14684137946440967  0.5591196722506917  0.6708122275301329  1.0000
  C   C25       1.0  0.14622280906350804  0.5650690897416302  0.1442965587088214  1.0000
  C   C26       1.0  0.14467790556285287  0.8255200095267194  0.40137442220988495  1.0000
  C   C27       1.0  0.1483862230023436  0.2986670200023902  0.41373444374660684  1.0000
  O   O2        1.0  0.22654737154898874  0.5675561101633846  0.19799201011519285  1.0000
  O   O3        1.0  0.22708421130897732  0.5566284236565813  0.6171127106902259  1.0000
  O   O4        1.0  0.22533609801585297  0.7717500809076401  0.39953977411578  1.0000
  O   O5        1.0  0.22829541246957846  0.35243446209543317  0.41556483860412285  1.0000
  O   O6        1.0  0.06476640627567232  0.7717524781815359  0.3995438092308312  1.0000
  O   O7        1.0  0.06651450733724484  0.5566325533965901  0.6171166660817979  1.0000
  O   O8        1.0  0.06597766623172885  0.5675601713759619  0.1979942326890647  1.0000
  O   O9        1.0  0.06772570733057993  0.3524385141278037  0.4155671692575691  1.0000
