data_image0
_chemical_formula_structural       NC9NC3OH6C12H10C9H10Zn2C4O8
_chemical_formula_sum              "N2 C37 O9 H26 Zn2"
_cell_length_a       15.78231758774541
_cell_length_b       10.299137764757564
_cell_length_c       9.272679976505533
_cell_angle_alpha    85.9999409853106
_cell_angle_beta     90.48255963298988
_cell_angle_gamma    89.65025930418041

_space_group_name_H-M_alt    "P 1"
_space_group_IT_number       1

loop_
  _space_group_symop_operation_xyz
  'x, y, z'

loop_
  _atom_site_type_symbol
  _atom_site_label
  _atom_site_symmetry_multiplicity
  _atom_site_fract_x
  _atom_site_fract_y
  _atom_site_fract_z
  _atom_site_occupancy
  N   N1        1.0  0.7917138399827882  0.40194332894679435  0.41187224793575195  1.0000
  C   C1        1.0  0.7432738620958493  0.32006611188637946  0.4386360258742721  1.0000
  C   C2        1.0  0.6831338045545512  0.21843658625966042  0.4718567687677187  1.0000
  C   C3        1.0  0.7029395766149361  0.09077288972687002  0.513499220718604  1.0000
  C   C4        1.0  0.6262787256955977  0.028902661033455953  0.5337635440205635  1.0000
  C   C5        1.0  0.5643922859819769  0.12338873755156542  0.5029891898129779  1.0000
  C   C6        1.0  0.471321276755634  0.10592043991470156  0.5087807693953283  1.0000
  C   C7        1.0  0.4174555081698784  0.21303093097716513  0.4737109758918252  1.0000
  C   C8        1.0  0.3292654314271006  0.1987074029689184  0.4784678815584476  1.0000
  C   C9        1.0  0.27469961740946386  0.3089342633883225  0.44236855966683747  1.0000
  N   N2        1.0  0.23084160792548933  0.3975424276705397  0.4133479329821885  1.0000
  C   C10       1.0  0.2942600248025133  0.07711398120683441  0.5183490328460181  1.0000
  C   C11       1.0  0.3471946310819032  0.9702249729161129  0.5533511574510117  1.0000
  C   C12       1.0  0.4351994906228438  0.9841550004633495  0.5487235196531774  1.0000
  O   O1        1.0  0.6007248978433978  0.2353662408311279  0.46640938824516437  1.0000
  H   H1        1.0  0.7654480410891175  0.04771970475697995  0.5274860999967006  1.0000
  H   H2        1.0  0.617660748785404  0.9271709171885518  0.5669642227001426  1.0000
  H   H3        1.0  0.44395413786580434  0.30765213563493576  0.4426711271294783  1.0000
  H   H4        1.0  0.22615762196071412  0.064982680353302  0.5223755284199028  1.0000
  H   H5        1.0  0.3199649571898905  0.8762506513069002  0.5841792719415049  1.0000
  H   H6        1.0  0.4743813555250377  0.8994914443864892  0.5764568257145972  1.0000
  C   C13       1.0  0.01120085062305853  0.01834489666746686  0.4127669865365575  1.0000
  C   C14       1.0  0.010547071066515637  0.027104449789346226  0.2609615841729849  1.0000
  C   C15       1.0  0.01029870335444927  0.9144122003455185  0.18383500936654662  1.0000
  C   C16       1.0  0.010712901047036597  0.7918447250010207  0.2605656966159855  1.0000
  C   C17       1.0  0.011362722948180531  0.7811308909870337  0.41246569112540676  1.0000
  C   C18       1.0  0.011604117699991928  0.8948917393230006  0.48763118080673445  1.0000
  C   C19       1.0  0.00960606569549993  0.9247238657263275  0.02323988846570724  1.0000
  C   C20       1.0  0.060394487195859714  0.8413381889365447  0.9458540661949182  1.0000
  C   C21       1.0  0.059637203479659256  0.8512959287479606  0.7946867345960986  1.0000
  C   C22       1.0  0.008297125388004199  0.9442520248775284  0.7191970221583723  1.0000
  C   C23       1.0  0.9576072543472923  0.027508888104867735  0.7947213979843051  1.0000
  C   C24       1.0  0.9581514885769102  0.01804818734098301  0.9458889878191076  1.0000
  H   H7        1.0  0.0114090945988361  0.342451763699787  0.4711612374868748  1.0000
  H   H8        1.0  0.011402033853008524  0.12179778097576686  0.2023504972475929  1.0000
  H   H9        1.0  0.009356676054968375  0.7046626739042096  0.2016735658042892  1.0000
  H   H10       1.0  0.012106073205961245  0.8874197887401777  0.6047221632962319  1.0000
  H   H11       1.0  0.012050441484313673  0.5536229248154322  0.6991671523656908  1.0000
  H   H12       1.0  0.10146286506055864  0.769669559906035  0.0021866102680661035  1.0000
  H   H13       1.0  0.09906978654391402  0.787065961714066  0.736036092705564  1.0000
  H   H14       1.0  0.007793462975862696  0.9517677191125943  0.6021834365500545  1.0000
  H   H15       1.0  0.9176698935517266  0.09927131046126234  0.7360962492300178  1.0000
  H   H16       1.0  0.917568517608958  0.08248053045101211  0.002240725858810406  1.0000
  C   C25       1.0  0.009563223510925534  0.39668821735153736  0.9892490970751924  1.0000
  C   C26       1.0  0.06712816897267215  0.315772010222094  0.06974055101244425  1.0000
  C   C27       1.0  0.12886794870651408  0.24533869442031353  0.0013746376778263028  1.0000
  C   C28       1.0  0.13513055253498407  0.25350469826721556  0.8505301758160329  1.0000
  C   C29       1.0  0.07654818497141536  0.3326684044353132  0.7686517237310162  1.0000
  C   C30       1.0  0.013000345255586453  0.402787591514963  0.8359836149482405  1.0000
  C   C31       1.0  0.20476995810117737  0.17456901079834727  0.7846469100625937  1.0000
  C   C32       1.0  0.18458176574673224  0.11533332969128773  0.6425027194126218  1.0000
  C   C33       1.0  0.24420353574750464  0.2310293376091526  0.6448385872581843  1.0000
  H   H17       1.0  0.8820027340526132  0.4857801785977846  0.26173658152097223  1.0000
  H   H18       1.0  0.06578541874997196  0.30923405374969887  0.18681323311810183  1.0000
  H   H19       1.0  0.17271904633314528  0.18487745340320738  0.06717814931497457  1.0000
  H   H20       1.0  0.07844471990728863  0.3382640691600781  0.6518769716195161  1.0000
  H   H21       1.0  0.8206616071546154  0.5268996115552256  0.7205862038076858  1.0000
  H   H22       1.0  0.2490422121246546  0.11569929652053013  0.8570050759713368  1.0000
  H   H23       1.0  0.12164935706767749  0.13812771068187898  0.5926008666050233  1.0000
  H   H24       1.0  0.21747303725995304  0.021502398702629266  0.6283562480739118  1.0000
  H   H25       1.0  0.2175288028146033  0.32404280548229103  0.5962391103395039  1.0000
  H   H26       1.0  0.311951016777571  0.20480904716243198  0.632053535967084  1.0000
  Zn  Zn1       1.0  0.9184366575157141  0.4006699145846002  0.4123064188198353  1.0000
  Zn  Zn2       1.0  0.1041188074907557  0.3988053266493097  0.4129255517285024  1.0000
  C   C34       1.0  0.012347675839722957  0.39646060923578474  0.675934655608331  1.0000
  C   C35       1.0  0.010209817732232064  0.4030162514006975  0.14929746255730492  1.0000
  C   C36       1.0  0.01130444919149709  0.6369067620494491  0.40677752532405265  1.0000
  C   C37       1.0  0.01125298100097405  0.16256853935543011  0.4184546701102545  1.0000
  O   O2        1.0  0.08089222768199988  0.4044267298574755  0.20324611602340648  1.0000
  O   O3        1.0  0.08259371943591962  0.3936339688930355  0.6224554950652885  1.0000
  O   O4        1.0  0.0817503569019033  0.5877972984840424  0.4051092043285407  1.0000
  O   O5        1.0  0.08173552641844783  0.21026340941498417  0.42059229844714596  1.0000
  O   O6        1.0  0.9408198752237869  0.5892118324565774  0.40463967188232863  1.0000
  O   O7        1.0  0.9416632377730518  0.395050062734825  0.6219858851315418  1.0000
  O   O8        1.0  0.939961739029725  0.4058427659532939  0.20277477275751643  1.0000
  O   O9        1.0  0.940805038199506  0.21167943699993907  0.4201210632754011  1.0000
