data_image0
_chemical_formula_structural       NC9NC3OH5C7OC3FC3H8C7OC6H10Zn2C4O8
_chemical_formula_sum              "N2 C42 O11 H23 F1 Zn2"
_cell_length_a       15.78231758774541
_cell_length_b       10.29937835083307
_cell_length_c       10.299382801718286
_cell_angle_alpha    85.56292937340861
_cell_angle_beta     90.06446718373022
_cell_angle_gamma    89.65202187042593

_space_group_name_H-M_alt    "P 1"
_space_group_IT_number       1

loop_
  _space_group_symop_operation_xyz
  'x, y, z'

loop_
  _atom_site_type_symbol
  _atom_site_label
  _atom_site_symmetry_multiplicity
  _atom_site_fract_x
  _atom_site_fract_y
  _atom_site_fract_z
  _atom_site_occupancy
  N   N1        1.0  0.7985061701920788  0.4130497985709223  0.5697008343055949  1.0000
  C   C1        1.0  0.7499505434363045  0.33098770037583036  0.5937929711996661  1.0000
  C   C2        1.0  0.6896669358813005  0.22912868958787125  0.623697519572598  1.0000
  C   C3        1.0  0.7092927614320751  0.10117734229864705  0.6611830416757767  1.0000
  C   C4        1.0  0.6325443489204468  0.03916712510979714  0.6794245442220954  1.0000
  C   C5        1.0  0.5707908950501372  0.13386577402354716  0.651722247936287  1.0000
  C   C6        1.0  0.4776948649132358  0.1163574590018641  0.6569357453516633  1.0000
  C   C7        1.0  0.42398063270193626  0.22371021516505762  0.625366688427393  1.0000
  C   C8        1.0  0.33577000555736564  0.20935381798994523  0.6296487920157658  1.0000
  C   C9        1.0  0.2813601759318199  0.3198300566808818  0.5971529705750249  1.0000
  N   N2        1.0  0.23762756386171643  0.40863869896516397  0.5710292351265251  1.0000
  C   C10       1.0  0.30059227700933844  0.08748488552900334  0.6655489705318103  1.0000
  C   C11       1.0  0.3533756396115976  0.9803540790179901  0.6970571164138275  1.0000
  C   C12       1.0  0.44140049101520845  0.9943160826872002  0.6928913771849385  1.0000
  O   O1        1.0  0.6072815731979783  0.24609596363905184  0.6187939668555402  1.0000
  H   H1        1.0  0.6237829053769908  0.9372060411354493  0.7093109979727059  1.0000
  H   H2        1.0  0.45061338173266147  0.31854585283841014  0.5974252623237375  1.0000
  H   H3        1.0  0.23247247908048002  0.07532576276047354  0.6691735671649923  1.0000
  H   H4        1.0  0.32601276129144974  0.8861667870635095  0.7248079440231565  1.0000
  H   H5        1.0  0.48046252126940486  0.9094609410225202  0.7178562975329312  1.0000
  C   C13       1.0  0.017981588021941393  0.02946015575468519  0.5704287841495796  1.0000
  C   C14       1.0  0.9295803013135615  0.030352964305921933  0.5541365423516842  1.0000
  C   C15       1.0  0.8848852267232548  0.9135168077816446  0.5473962135701738  1.0000
  C   C16       1.0  0.9297874834381896  0.7951068814203532  0.5541440443605712  1.0000
  C   C17       1.0  0.01816020944052821  0.7922183137561623  0.5703125305606891  1.0000
  C   C18       1.0  0.06171971116007512  0.9099204315382498  0.5787032000877148  1.0000
  C   C19       1.0  0.7916445742734303  0.9144206279609464  0.528819846479351  1.0000
  O   O2        1.0  0.7589315282963792  0.8300469507120936  0.4620597423424413  1.0000
  C   C20       1.0  0.7355149197371078  0.010942236152566181  0.5859890883859551  1.0000
  C   C21       1.0  0.6600514882027962  0.0516870658475148  0.5219798194075631  1.0000
  C   C22       1.0  0.6062153966215021  0.14149436378576416  0.5758779735428576  1.0000
  F   F1        1.0  0.5339330517803407  0.1808995017899615  0.5129396901322003  1.0000
  C   C23       1.0  0.6268120714943052  0.19060534512580227  0.6945456097870322  1.0000
  C   C24       1.0  0.701058810380037  0.14962060560783774  0.7597657637077633  1.0000
  C   C25       1.0  0.7550700137012384  0.05988322860932093  0.7062728523274631  1.0000
  H   H6        1.0  0.1849535909458414  0.23524817776143522  0.5991785245365406  1.0000
  H   H7        1.0  0.89548971725634  0.12220527826818395  0.5452202615292916  1.0000
  H   H8        1.0  0.8954869748042759  0.7049817735981714  0.5479879596152635  1.0000
  H   H9        1.0  0.12987053391826955  0.9084281390293393  0.5912625656765818  1.0000
  H   H10       1.0  0.6431900884656823  0.014838185733519577  0.4297702421877108  1.0000
  H   H11       1.0  0.5851137835886265  0.2600196855648971  0.7362985366895161  1.0000
  H   H12       1.0  0.7166102311300351  0.18696984595919797  0.852184948853979  1.0000
  H   H13       1.0  0.8115265382717703  0.027763663119638512  0.7595959170923761  1.0000
  C   C26       1.0  0.018155413156579966  0.41076514568918276  0.18900113326274015  1.0000
  C   C27       1.0  0.10717180553135325  0.4107344543757094  0.1879666308574015  1.0000
  C   C28       1.0  0.15206880102049258  0.4092308396856937  0.07038696844970893  1.0000
  C   C29       1.0  0.10696533601025754  0.4107645663031214  0.9527204332827443  1.0000
  C   C30       1.0  0.01798636737034754  0.4109133053368412  0.9517401336107203  1.0000
  C   C31       1.0  0.9740974659526349  0.41056799721592174  0.07044792073332129  1.0000
  C   C32       1.0  0.24605886475900507  0.4105824399421751  0.06904245589021318  1.0000
  O   O3        1.0  0.28340631675176137  0.47091863940878653  0.9746192858215492  1.0000
  C   C33       1.0  0.2976803201739806  0.3434779643767263  0.17471497570823935  1.0000
  C   C34       1.0  0.37733322673742364  0.39313969111001135  0.20604962667324367  1.0000
  C   C35       1.0  0.42688902212012114  0.32970543043027645  0.30446358407683394  1.0000
  C   C36       1.0  0.397829347836209  0.21568908106182458  0.3717571152601338  1.0000
  C   C37       1.0  0.31929967210527965  0.164569048933304  0.34040306480704285  1.0000
  C   C38       1.0  0.26950241249601947  0.22762700729754104  0.24209049564085672  1.0000
  H   H14       1.0  0.850168626711842  0.41283483671770743  0.3981176310542158  1.0000
  H   H15       1.0  0.1416912011312239  0.41333829373329456  0.2786694486897239  1.0000
  H   H16       1.0  0.1414927788692082  0.41058908627858987  0.8618733740070766  1.0000
  H   H17       1.0  0.9054725345735182  0.410592456645517  0.07044120872163862  1.0000
  H   H18       1.0  0.9838048309234838  0.41207546476720375  0.6238215665624272  1.0000
  H   H19       1.0  0.4008779577551369  0.48157985728656394  0.15517179743173193  1.0000
  H   H20       1.0  0.48789024510274426  0.36897803918113914  0.3285147053094368  1.0000
  H   H21       1.0  0.4363090919123864  0.16667328481492172  0.44782436087241906  1.0000
  H   H22       1.0  0.2971340297054781  0.07565910207474857  0.3919138977501362  1.0000
  H   H23       1.0  0.20951784316495448  0.1850618824842929  0.21785673123859328  1.0000
  Zn  Zn1       1.0  0.9252271127429301  0.41177338285066595  0.5700916760946735  1.0000
  Zn  Zn2       1.0  0.11090658798330466  0.40990451685621293  0.570649011289081  1.0000
  C   C39       1.0  0.018015244249172103  0.4057114283674561  0.8075669470281754  1.0000
  C   C40       1.0  0.018120484446692665  0.415968089640869  0.3331738736585479  1.0000
  C   C41       1.0  0.01812324471379157  0.648039802541678  0.5651593071353271  1.0000
  C   C42       1.0  0.018012420241867208  0.17363815575327665  0.5755815828377873  1.0000
  O   O4        1.0  0.08857315390261394  0.4169993542889374  0.38177106903493474  1.0000
  O   O5        1.0  0.08848900002347299  0.4032607578381957  0.759392382471191  1.0000
  O   O6        1.0  0.08857526157155421  0.5989439944674351  0.5636464951263767  1.0000
  O   O7        1.0  0.08848682901845834  0.22131612756909314  0.5775168588133295  1.0000
  O   O8        1.0  0.9476468083444861  0.6003617727769508  0.5632238283734023  1.0000
  O   O9        1.0  0.9475605471733197  0.40468009650024683  0.7589696462348035  1.0000
  O   O10       1.0  0.9476447014442015  0.41841864738937823  0.3813467714024461  1.0000
  O   O11       1.0  0.9475583765328297  0.22273541139930364  0.5770926585502381  1.0000
