data_image0
_chemical_formula_structural       NC5NC3OH4C6NH7C7F3H5Zn2C4O8
_chemical_formula_sum              "N3 C25 O9 H16 F3 Zn2"
_cell_length_a       13.84702359539666
_cell_length_b       9.274771166103582
_cell_length_c       10.299327507215196
_cell_angle_alpha    85.44807283694688
_cell_angle_beta     89.96690636176139
_cell_angle_gamma    90.59789355945463

_space_group_name_H-M_alt    "P 1"
_space_group_IT_number       1

loop_
  _space_group_symop_operation_xyz
  'x, y, z'

loop_
  _atom_site_type_symbol
  _atom_site_label
  _atom_site_symmetry_multiplicity
  _atom_site_fract_x
  _atom_site_fract_y
  _atom_site_fract_z
  _atom_site_occupancy
  N   N1        1.0  0.9207478605127506  0.5789283934721399  0.564528889527169  1.0000
  C   C1        1.0  0.8485292437350609  0.5702480254556066  0.6213588655003213  1.0000
  C   C2        1.0  0.7585900044648428  0.5594391338886624  0.6921241598452601  1.0000
  C   C3        1.0  0.6710955168772923  0.5698812088853589  0.6237598059161926  1.0000
  C   C4        1.0  0.5831455012285597  0.5595604580047593  0.6913295024110901  1.0000
  C   C5        1.0  0.4933867616910983  0.5703113852570618  0.6209437926044157  1.0000
  N   N2        1.0  0.4212323573857283  0.5789543053284114  0.5643592932158532  1.0000
  C   C6        1.0  0.5826843536086269  0.5387664857784955  0.8274666629703022  1.0000
  C   C7        1.0  0.6697985296073241  0.5283146775299865  0.895892327449902  1.0000
  C   C8        1.0  0.7580634030253686  0.5385689154962215  0.8287594279179726  1.0000
  O   O1        1.0  0.844897793755347  0.5280992642550222  0.8973035131938385  1.0000
  H   H1        1.0  0.6714573554295253  0.5859907073684638  0.5182924478895349  1.0000
  H   H2        1.0  0.515059887772058  0.530643507591494  0.8806471236929689  1.0000
  H   H3        1.0  0.6686586114527897  0.5122371315959537  0.0011511375799919705  1.0000
  H   H4        1.0  0.8463006817866227  0.5130521769186658  0.9958152097149232  1.0000
  C   C9        1.0  0.1680296634505516  0.15534453236376278  0.565152972848084  1.0000
  C   C10       1.0  0.14583542352288115  0.23866997532492126  0.44902003380996147  1.0000
  C   C11       1.0  0.13265798635813142  0.17363786107807266  0.3321471777733216  1.0000
  C   C12       1.0  0.14172562408614464  0.023902963537692383  0.33056069018016987  1.0000
  C   C13       1.0  0.16213446039251567  0.939258245143391  0.4450988039810406  1.0000
  C   C14       1.0  0.17395971104914976  0.0025270938473360652  0.5637464489876296  1.0000
  N   N3        1.0  0.11105739410265225  0.26006302882349996  0.2147375865585217  1.0000
  H   H5        1.0  0.2766447529597491  0.23496680941733825  0.8493475993069417  1.0000
  H   H6        1.0  0.14096623216178772  0.355262507990705  0.4485228040578278  1.0000
  H   H7        1.0  0.13204398975690013  0.9724290531518887  0.24063866387348723  1.0000
  H   H8        1.0  0.16639132820482305  0.8230950215238599  0.44137785098881865  1.0000
  H   H9        1.0  0.2432016968937254  0.705434660770903  0.7571009967560666  1.0000
  H   H10       1.0  0.1044036671510522  0.3721365921075405  0.21469765913740835  1.0000
  H   H11       1.0  0.10146615425272801  0.21260600276086403  0.12695136266802076  1.0000
  C   C15       1.0  0.1710875705155617  0.5789943895185654  0.18306798704031646  1.0000
  C   C16       1.0  0.26533951966859637  0.6368377052016343  0.17766967958703783  1.0000
  C   C17       1.0  0.31219786929261817  0.6684657121771527  0.05764637211563706  1.0000
  C   C18       1.0  0.26509561150010463  0.6366847283111066  0.942432558197428  1.0000
  C   C19       1.0  0.17090182050534297  0.5788772230016939  0.945831420528458  1.0000
  C   C20       1.0  0.12430437953184414  0.55090205460277  0.0666211502571985  1.0000
  C   C21       1.0  0.4146688683010349  0.7256722963549596  0.05325447250728854  1.0000
  F   F1        1.0  0.432127415911026  0.8099090919375883  0.15600006371195207  1.0000
  F   F2        1.0  0.47765358731288465  0.6106662599645819  0.06129275615678665  1.0000
  F   F3        1.0  0.4318619765032701  0.8098895070542723  0.9383567824587171  1.0000
  H   H12       1.0  0.9938613357940044  0.467425618536943  0.4006651018601526  1.0000
  H   H13       1.0  0.3025165057569148  0.6571280178024299  0.267019973337856  1.0000
  H   H14       1.0  0.3021052704532115  0.6568662294608639  0.8500065261346267  1.0000
  H   H15       1.0  0.051659150756722116  0.5063225542474867  0.06997694200712079  1.0000
  H   H16       1.0  0.13530259079081408  0.5542854011585081  0.6198527247569889  1.0000
  Zn  Zn1       1.0  0.0651768446693306  0.5789320082814895  0.5644874427476827  1.0000
  Zn  Zn2       1.0  0.27680326396995447  0.5789388859464784  0.5644113587282831  1.0000
  C   C22       1.0  0.17089452602971522  0.5731528049718237  0.8016623293637423  1.0000
  C   C23       1.0  0.17108790627233034  0.5847199093709152  0.3272365957303276  1.0000
  C   C24       1.0  0.17283508374534856  0.8423923204107026  0.5588369459473486  1.0000
  C   C25       1.0  0.16914726419553427  0.31547866084862153  0.5700620512910006  1.0000
  O   O2        1.0  0.25139909812976957  0.5866377630818651  0.3755920347625834  1.0000
  O   O3        1.0  0.2512028821933714  0.5712390831025234  0.753248772269361  1.0000
  O   O4        1.0  0.2527688241291779  0.7886533965751574  0.5571655550297834  1.0000
  O   O5        1.0  0.24983308407614918  0.36922345994074734  0.5716751546330561  1.0000
  O   O6        1.0  0.09214695234543792  0.7886474342864453  0.5572236468620395  1.0000
  O   O7        1.0  0.0905810225530961  0.5712348538964498  0.7533067919764675  1.0000
  O   O8        1.0  0.09077723858218124  0.5866334838486655  0.37564849310005144  1.0000
  O   O9        1.0  0.08921122442867668  0.36921917037525565  0.5717317103587594  1.0000
