data_image0
_chemical_formula_structural       NC9NC3SH6C7NC2NH8C12H10Zn2C4O8
_chemical_formula_sum              "N4 C37 S1 H24 Zn2 O8"
_cell_length_a       16.77567553997237
_cell_length_b       9.273995741505848
_cell_length_c       10.299141136925908
_cell_angle_alpha    85.68706710251877
_cell_angle_beta     90.41956326603899
_cell_angle_gamma    91.47570659476311

_space_group_name_H-M_alt    "P 1"
_space_group_IT_number       1

loop_
  _space_group_symop_operation_xyz
  'x, y, z'

loop_
  _atom_site_type_symbol
  _atom_site_label
  _atom_site_symmetry_multiplicity
  _atom_site_fract_x
  _atom_site_fract_y
  _atom_site_fract_z
  _atom_site_occupancy
  N   N1        1.0  0.7593682477391536  0.5995536702899846  0.5781443717713421  1.0000
  C   C1        1.0  0.7049393181825537  0.6543286175948418  0.6198807111366502  1.0000
  C   C2        1.0  0.6373921959741501  0.7223007058086395  0.6716723164100932  1.0000
  C   C3        1.0  0.6401038305335258  0.8201129479504807  0.7669723051780712  1.0000
  C   C4        1.0  0.5647473640357078  0.8683880566079314  0.7986041444323959  1.0000
  C   C5        1.0  0.5023867053458254  0.8083799535172421  0.7278379267762053  1.0000
  C   C6        1.0  0.4160623022613411  0.8373256559557325  0.7387603279599608  1.0000
  C   C7        1.0  0.3587314212134275  0.7489465151551393  0.6802537426491312  1.0000
  C   C8        1.0  0.27724383578078726  0.7756595924727703  0.6901140118985664  1.0000
  C   C9        1.0  0.2192283875784038  0.6843169657743413  0.630204770004811  1.0000
  N   N2        1.0  0.1726010668237246  0.6108905835396257  0.582046590133593  1.0000
  C   C10       1.0  0.25225923027820424  0.8911000752768913  0.7583205796280759  1.0000
  C   C11       1.0  0.3084993384367798  0.9796556977120128  0.816365953860129  1.0000
  C   C12       1.0  0.3898316227874546  0.9533459871385459  0.8068012861546467  1.0000
  S   S1        1.0  0.5423052436417005  0.6950221601640043  0.626443481532382  1.0000
  H   H1        1.0  0.694718335565175  0.8554881201790444  0.812830808011231  1.0000
  H   H2        1.0  0.5569270190624476  0.9437833354174735  0.8722775121412352  1.0000
  H   H3        1.0  0.3770052479409923  0.6586665030963237  0.6275810209650858  1.0000
  H   H4        1.0  0.1893991938559365  0.9127098424876238  0.7664618548682023  1.0000
  H   H5        1.0  0.28904094331459357  0.06925659958524698  0.868719518976393  1.0000
  H   H6        1.0  0.43168892271196113  0.025127514584557083  0.8517387316964438  1.0000
  C   C13       1.0  0.9636035677413118  0.18166812143241695  0.5791242573240213  1.0000
  C   C14       1.0  0.9775772467356211  0.26532378409585045  0.46180357857981286  1.0000
  C   C15       1.0  0.998686880072282  0.20082306664402913  0.34942165321936275  1.0000
  C   C16       1.0  0.006703734380435478  0.050596424898501136  0.35115291195845644  1.0000
  C   C17       1.0  0.9910554579769586  0.965617553763259  0.46738189049038786  1.0000
  C   C18       1.0  0.9683733180242143  0.028765213229717375  0.5810779883984584  1.0000
  C   C19       1.0  0.030047904256163657  0.9842765704218833  0.23068410854548338  1.0000
  N   N3        1.0  0.03292607728784813  0.058676317081692624  0.11269703986922042  1.0000
  C   C20       1.0  0.056824890156925933  0.9614695697388526  0.031240355126631817  1.0000
  C   C21       1.0  0.06821776969092763  0.8308465145112143  0.10029485690800752  1.0000
  N   N4        1.0  0.05141201037627118  0.8453457384863199  0.22570965011843167  1.0000
  H   H7        1.0  0.8989825072067364  0.44443957577316384  0.7654319516483822  1.0000
  H   H8        1.0  0.9741068272726684  0.38207373845067194  0.45758196221054165  1.0000
  H   H9        1.0  0.009920780754624218  0.2693582940886592  0.26130133001452704  1.0000
  H   H10       1.0  0.9937558752144859  0.84912898411976  0.4692072244529952  1.0000
  H   H11       1.0  0.9694650255072821  0.7306980899559224  0.7970659944751705  1.0000
  H   H12       1.0  0.06562354588632635  0.9847643809613198  0.9277762535604146  1.0000
  H   H13       1.0  0.08779254975600237  0.7322838739532098  0.06197884194748071  1.0000
  H   H14       1.0  0.055762554998493474  0.7649010455191843  0.30166743534100976  1.0000
  C   C22       1.0  0.9658985036714702  0.6053373020389099  0.19870756463033487  1.0000
  C   C23       1.0  0.049273201547035184  0.6231559408349048  0.19771464074292908  1.0000
  C   C24       1.0  0.09164009917691932  0.6320667887802687  0.08007806083474  1.0000
  C   C25       1.0  0.04950532899591752  0.622918443890474  0.9624505786049917  1.0000
  C   C26       1.0  0.9660784047422033  0.6050960806884285  0.9614947370689155  1.0000
  C   C27       1.0  0.9247886743124338  0.5964128721896812  0.08007416856033588  1.0000
  C   C28       1.0  0.1798421509529846  0.6509189327282947  0.08007241507772611  1.0000
  C   C29       1.0  0.22685164531367352  0.5733493476506804  0.9981152358208133  1.0000
  C   C30       1.0  0.3098665533693685  0.5912731823750079  0.998348207647759  1.0000
  C   C31       1.0  0.3468288561875592  0.6866060583794442  0.080067903196261  1.0000
  C   C32       1.0  0.3008510440554484  0.7642135133537483  0.16179016559158033  1.0000
  C   C33       1.0  0.2178172777225511  0.7466507261008373  0.1620276469073194  1.0000
  H   H15       1.0  0.9338233729397375  0.5985563979377073  0.5265602651147232  1.0000
  H   H16       1.0  0.0815612797562435  0.6281585166990957  0.28878121043211946  1.0000
  H   H17       1.0  0.08175293123815597  0.6316999962778209  0.871347062534475  1.0000
  H   H18       1.0  0.8604796758149558  0.5826729504687074  0.08012412640978717  1.0000
  H   H19       1.0  0.808567783958954  0.5723708615643406  0.7523369601582335  1.0000
  H   H20       1.0  0.1995124292118391  0.49753604021845427  0.9351765363933318  1.0000
  H   H21       1.0  0.34557787268085094  0.5308897031787729  0.9353185349341662  1.0000
  H   H22       1.0  0.41109514628370536  0.7003403806293304  0.08006632490958254  1.0000
  H   H23       1.0  0.32955010596977363  0.8383619584747755  0.22481808130433678  1.0000
  H   H24       1.0  0.1832680166430174  0.8092371715516664  0.224969060845164  1.0000
  Zn  Zn1       1.0  0.878618295967992  0.6028214053001624  0.5792779668762333  1.0000
  Zn  Zn2       1.0  0.05335094989277578  0.6076110789084832  0.5809236336952069  1.0000
  C   C34       1.0  0.9660102463834928  0.599395665273635  0.8172983339875249  1.0000
  C   C35       1.0  0.9659609178296561  0.6110386910736116  0.34290341622662485  1.0000
  C   C36       1.0  0.9674664079833806  0.8686473978212558  0.5755331674034407  1.0000
  C   C37       1.0  0.9645046868646407  0.3417852239739423  0.5846686474954895  1.0000
  O   O1        1.0  0.032291960697939937  0.6147634930306856  0.3919213687360321  1.0000
  O   O2        1.0  0.03229723859082378  0.5993050267832941  0.769529028135779  1.0000
  O   O3        1.0  0.03347221392458111  0.8167291810384736  0.5743019406304773  1.0000
  O   O4        1.0  0.031116925774896657  0.3973393474897722  0.5871483583226129  1.0000
  O   O5        1.0  0.900852260458199  0.8130931350859657  0.5730532416804139  1.0000
  O   O6        1.0  0.8996772948618973  0.5956707137499258  0.7682802639325221  1.0000
  O   O7        1.0  0.8996720163708087  0.6111291302306026  0.3906710429157163  1.0000
  O   O8        1.0  0.8984969814093792  0.3937049743425149  0.5858981298526047  1.0000
