data_image0
_chemical_formula_structural       NC9NC3OH6C8H6C8NH11Zn2C4O8
_chemical_formula_sum              "N3 C32 O9 H23 Zn2"
_cell_length_a       15.78231758774541
_cell_length_b       9.27514070457351
_cell_length_c       9.275652972338538
_cell_angle_alpha    86.0727604772434
_cell_angle_beta     90.52078220685846
_cell_angle_gamma    90.22379856908987

_space_group_name_H-M_alt    "P 1"
_space_group_IT_number       1

loop_
  _space_group_symop_operation_xyz
  'x, y, z'

loop_
  _atom_site_type_symbol
  _atom_site_label
  _atom_site_symmetry_multiplicity
  _atom_site_fract_x
  _atom_site_fract_y
  _atom_site_fract_z
  _atom_site_occupancy
  N   N1        1.0  0.8002759487271901  0.5586401414504324  0.41653379555190106  1.0000
  C   C1        1.0  0.7513102359045304  0.46770437771775303  0.44303979259580845  1.0000
  C   C2        1.0  0.6905176136863188  0.3548309935526923  0.4759405666630845  1.0000
  C   C3        1.0  0.7095036208816268  0.21304325300818383  0.5171811035778884  1.0000
  C   C4        1.0  0.6324455159361527  0.14432790877499183  0.5372506268111589  1.0000
  C   C5        1.0  0.5711658160430662  0.249267366152828  0.5067737266985373  1.0000
  C   C6        1.0  0.47798267435524683  0.2298663354908144  0.5125102914900448  1.0000
  C   C7        1.0  0.4248046414524796  0.3488271567054395  0.47777773558904685  1.0000
  C   C8        1.0  0.3365226222487594  0.33291882906249626  0.48248952887964536  1.0000
  C   C9        1.0  0.2826645499454057  0.4553408167688769  0.44673725849752244  1.0000
  N   N2        1.0  0.23937547286483782  0.5537522908837317  0.4179956167324312  1.0000
  C   C10       1.0  0.30073651486655195  0.19787263857194184  0.5219878278133266  1.0000
  C   C11       1.0  0.35298480944803734  0.07915779737797622  0.5566534110919172  1.0000
  C   C12       1.0  0.4410790850268399  0.09462908844045016  0.5520696466390158  1.0000
  O   O1        1.0  0.6082174462438706  0.37363355111109736  0.4705464682186149  1.0000
  H   H1        1.0  0.7717356065994004  0.1652269684310852  0.5310324538112352  1.0000
  H   H2        1.0  0.6231742971886586  0.03134107274258469  0.5701310265657737  1.0000
  H   H3        1.0  0.45191079247996385  0.45391700403020235  0.4470358148762213  1.0000
  H   H4        1.0  0.23255624050992774  0.18439909623380932  0.5259761160133873  1.0000
  H   H5        1.0  0.32515176776079796  0.9747864018867366  0.5871856342309871  1.0000
  H   H6        1.0  0.47971734672876876  0.00059863425535501  0.5795363864648004  1.0000
  C   C13       1.0  0.017251408899280563  0.13277740219096112  0.4162481111953118  1.0000
  C   C14       1.0  0.028758846730165804  0.2152123216261286  0.2848039251268166  1.0000
  C   C15       1.0  0.047678393550411924  0.14884277997808626  0.1585504483966762  1.0000
  C   C16       1.0  0.05554578075924007  0.9988436042405541  0.1613167946833578  1.0000
  C   C17       1.0  0.04294259161952452  0.9148242529959858  0.29039504554848095  1.0000
  C   C18       1.0  0.02240806448534348  0.9796039490067667  0.4182937833903453  1.0000
  C   C19       1.0  0.07560316441896181  0.9306835701593514  0.031038208836631664  1.0000
  C   C20       1.0  0.09239693777462092  0.8736013078959872  0.9219670981755739  1.0000
  H   H7        1.0  0.0327019293131987  0.2114780666152718  0.7704647903503368  1.0000
  H   H8        1.0  0.025095721760050912  0.3320484609555887  0.28037684663355367  1.0000
  H   H9        1.0  0.05700169184507484  0.21481387466514268  0.058937248342366466  1.0000
  H   H10       1.0  0.04721291180199614  0.7981682962329864  0.2902312061167338  1.0000
  H   H11       1.0  0.0295596059266998  0.6825930988754786  0.6569398051964563  1.0000
  H   H12       1.0  0.10713826414474048  0.823493375653971  0.8262255679995936  1.0000
  C   C21       1.0  0.01792641732019651  0.5534014451079113  0.993987124787917  1.0000
  C   C22       1.0  0.9635440742045381  0.6483304153704177  0.06017913289873378  1.0000
  C   C23       1.0  0.9159029585244455  0.7515987221558749  0.9775665642929758  1.0000
  C   C24       1.0  0.9214912373062416  0.7585616993832391  0.8268166187954011  1.0000
  C   C25       1.0  0.9740084386190614  0.6637176788419047  0.7592104777980548  1.0000
  C   C26       1.0  0.021733102709187824  0.5589799139894995  0.8405547247055454  1.0000
  C   C27       1.0  0.8570363176721402  0.8509051374418667  0.0501506070619606  1.0000
  C   C28       1.0  0.7694898232722408  0.781425004929945  0.0704777593120065  1.0000
  N   N3        1.0  0.7126172970386679  0.8795059706645265  0.1387297242721819  1.0000
  H   H13       1.0  0.078725546483448  0.33848396777475254  0.29028361939955927  1.0000
  H   H14       1.0  0.9594893907973802  0.6443636858227245  0.17698355582099934  1.0000
  H   H15       1.0  0.8843942293903814  0.8366444033787767  0.7612959545886072  1.0000
  H   H16       1.0  0.9755758599059308  0.6698932250770535  0.6422106558581056  1.0000
  H   H17       1.0  0.13712306858761336  0.42562442899814995  0.5701423952816409  1.0000
  H   H18       1.0  0.8837249018974553  0.8759452655446951  0.15701444641356166  1.0000
  H   H19       1.0  0.8508870828734784  0.9550797628473239  0.9840699948262869  1.0000
  H   H20       1.0  0.7428528869744013  0.7575428909211444  0.9631997126133508  1.0000
  H   H21       1.0  0.7748419979747766  0.6780888576646171  0.13844088070797134  1.0000
  H   H22       1.0  0.6524782423811601  0.8317521758210087  0.14281635838021645  1.0000
  H   H23       1.0  0.7325016380012734  0.8865020053547337  0.24593313702934272  1.0000
  Zn  Zn1       1.0  0.9269905966215297  0.5572258166978019  0.4169639533102789  1.0000
  Zn  Zn2       1.0  0.11266077780035605  0.5551549251087  0.41757721366695416  1.0000
  C   C29       1.0  0.02097666683125009  0.5521813463897122  0.680521445905458  1.0000
  C   C30       1.0  0.01867674681783303  0.560201193029452  0.1540198736391678  1.0000
  C   C31       1.0  0.021403174337797357  0.819497902949365  0.4121631076415402  1.0000
  C   C32       1.0  0.018250165751638944  0.29288290534063366  0.42237828435749125  1.0000
  O   O2        1.0  0.08938939207553037  0.5616910675343778  0.2079610399846696  1.0000
  O   O3        1.0  0.09118338448320504  0.5491186226044946  0.6270453124190671  1.0000
  O   O4        1.0  0.0915268515819449  0.7649801431762122  0.41034405607549584  1.0000
  O   O5        1.0  0.08904586119696795  0.3458295572717092  0.42466218806712464  1.0000
  O   O6        1.0  0.9506054498647721  0.7665511852430063  0.4098789786932546  1.0000
  O   O7        1.0  0.950261992965534  0.5506913965086674  0.6265801623655669  1.0000
  O   O8        1.0  0.9484679925156294  0.5632637797723501  0.2074941568013433  1.0000
  O   O9        1.0  0.9481244620567448  0.3474022599088462  0.4241954129280616  1.0000
