data_image0
_chemical_formula_structural       NC5NC3OH4C6ClH5C6NH7Zn2C4O8
_chemical_formula_sum              "N3 C24 O9 H16 Cl1 Zn2"
_cell_length_a       13.84702359539666
_cell_length_b       10.30297070629231
_cell_length_c       9.274774538082514
_cell_angle_alpha    85.06361778746081
_cell_angle_beta     90.33539993850698
_cell_angle_gamma    89.99918224466363

_space_group_name_H-M_alt    "P 1"
_space_group_IT_number       1

loop_
  _space_group_symop_operation_xyz
  'x, y, z'

loop_
  _atom_site_type_symbol
  _atom_site_label
  _atom_site_symmetry_multiplicity
  _atom_site_fract_x
  _atom_site_fract_y
  _atom_site_fract_z
  _atom_site_occupancy
  N   N1        1.0  0.9028370442240802  0.43335079932799386  0.40772578860102504  1.0000
  C   C1        1.0  0.8309511545689682  0.4250514556873438  0.4708628802225418  1.0000
  C   C2        1.0  0.7414262307038305  0.41471702019188417  0.5494818624710804  1.0000
  C   C3        1.0  0.6535314853252189  0.42470074557858317  0.47353028211657744  1.0000
  C   C4        1.0  0.5659770752994656  0.41483302182382453  0.5485990121084263  1.0000
  C   C5        1.0  0.47580624264042276  0.4251120365334746  0.4704017415512682  1.0000
  N   N2        1.0  0.4033205480969604  0.4333755733780167  0.407537370131668  1.0000
  C   C6        1.0  0.5663129811173381  0.3949518003863466  0.6998449739728134  1.0000
  C   C7        1.0  0.653827776443517  0.3849587896599467  0.7758646685776003  1.0000
  C   C8        1.0  0.7416996001586387  0.39476290860119834  0.7012812126133818  1.0000
  O   O1        1.0  0.828935301831581  0.3847528243602859  0.7774324710665985  1.0000
  H   H1        1.0  0.6532758346313949  0.44010311148696973  0.35635792509908515  1.0000
  H   H2        1.0  0.4989998756173215  0.38718538262305535  0.7589275190323808  1.0000
  H   H3        1.0  0.6533041258448162  0.3695869682270833  0.8928053327760529  1.0000
  H   H4        1.0  0.8309149553378026  0.37036623599771107  0.8868772119464946  1.0000
  C   C9        1.0  0.1530834174151932  0.05211568580684699  0.4076377833936391  1.0000
  C   C10       1.0  0.2529169305480148  0.04875980859040551  0.4353985747184564  1.0000
  C   C11       1.0  0.3024516547534699  0.9301378687656607  0.44917263754304443  1.0000
  C   C12       1.0  0.2529169294994685  0.8136518404521362  0.43539850684331843  1.0000
  C   C13       1.0  0.15308342805929614  0.814600626972894  0.4076378660069473  1.0000
  C   C14       1.0  0.10365331466155547  0.9344238769828292  0.3938927599819655  1.0000
  Cl  Cl1       1.0  0.42716749818416955  0.9274490962856502  0.48385238056574315  1.0000
  H   H5        1.0  0.11547787823517397  0.38068291063191134  0.39717997150369855  1.0000
  H   H6        1.0  0.29262314445381254  0.1379503601435137  0.4464395921898978  1.0000
  H   H7        1.0  0.2926231058390669  0.7227491681257384  0.44643948851333803  1.0000
  H   H8        1.0  0.026658679560213942  0.9360837044145545  0.37248275877764714  1.0000
  H   H9        1.0  0.1154778746399101  0.48765494182109065  0.39718024399039886  1.0000
  C   C15       1.0  0.1513502981178434  0.4366785886971982  0.9838221368286275  1.0000
  C   C16       1.0  0.2197797002273021  0.5132957530243398  0.05053287978015408  1.0000
  C   C17       1.0  0.29254163517211795  0.5792186879431664  0.9697405645430793  1.0000
  C   C18       1.0  0.29746347478699486  0.5688234556641818  0.8207612955251085  1.0000
  C   C19       1.0  0.22934390629918822  0.495066280397936  0.7523478734423694  1.0000
  C   C20       1.0  0.1548165589766115  0.4300376538586947  0.8314534576542978  1.0000
  N   N3        1.0  0.362079696109582  0.6556552885295353  0.03945613513950619  1.0000
  H   H10       1.0  0.006998055813984386  0.18288112609836316  0.10979680162258719  1.0000
  H   H11       1.0  0.21804134879295867  0.5194530394218175  0.16655366397819682  1.0000
  H   H12       1.0  0.35364115468362023  0.6189864523605666  0.757209371299111  1.0000
  H   H13       1.0  0.23365026109355336  0.4914551839008115  0.6361732021001072  1.0000
  H   H14       1.0  0.054624327146282285  0.26304832183554844  0.5654094002574306  1.0000
  H   H15       1.0  0.3592753360700376  0.6637965977850132  0.1508271143768649  1.0000
  H   H16       1.0  0.41686348438069104  0.704797275025958  0.9801934204282863  1.0000
  Zn  Zn1       1.0  0.04726580470753827  0.4333544078128663  0.4076797369559473  1.0000
  Zn  Zn2       1.0  0.25889181171890274  0.4333612496759419  0.40759520021270124  1.0000
  C   C21       1.0  0.15415921239338265  0.42612092994210377  0.6712329905617269  1.0000
  C   C22       1.0  0.15200071556181333  0.4405963646092665  0.14404208733744506  1.0000
  C   C23       1.0  0.15305495305698097  0.6705197718192564  0.4018866363850684  1.0000
  C   C24       1.0  0.15310490299964297  0.196195962321344  0.4133885184878474  1.0000
  O   O2        1.0  0.23252996836002482  0.44190813850927596  0.19778128510180548  1.0000
  O   O3        1.0  0.2342492005253305  0.42481337270236486  0.6174292159097725  1.0000
  O   O4        1.0  0.23335642065249274  0.6221685165710646  0.39993012967450925  1.0000
  O   O5        1.0  0.23342267557672147  0.24455300477331332  0.415280263153349  1.0000
  O   O6        1.0  0.0727348686321181  0.6221626527146336  0.399994674036557  1.0000
  O   O7        1.0  0.07362764818592704  0.4248090692558415  0.6174936833193332  1.0000
  O   O8        1.0  0.0719084089890476  0.4419038034157916  0.19784401732517254  1.0000
  O   O9        1.0  0.07280111664428413  0.24454865954622984  0.415343103581693  1.0000
