data_image0
_chemical_formula_structural       NC9NC3OH6C7F3H5C7F3H5Zn2C4O8
_chemical_formula_sum              "N2 C30 O9 H16 F6 Zn2"
_cell_length_a       15.78231758774541
_cell_length_b       9.272718291674593
_cell_length_c       9.272721663655245
_cell_angle_alpha    86.31122681088247
_cell_angle_beta     90.60221336655935
_cell_angle_gamma    89.20559360488726

_space_group_name_H-M_alt    "P 1"
_space_group_IT_number       1

loop_
  _space_group_symop_operation_xyz
  'x, y, z'

loop_
  _atom_site_type_symbol
  _atom_site_label
  _atom_site_symmetry_multiplicity
  _atom_site_fract_x
  _atom_site_fract_y
  _atom_site_fract_z
  _atom_site_occupancy
  N   N1        1.0  0.7827125411315754  0.5604307272475524  0.42385728594600214  1.0000
  C   C1        1.0  0.7347158673263229  0.469464510097938  0.4499095332782695  1.0000
  C   C2        1.0  0.675126058376835  0.3565533254032085  0.4822470938289301  1.0000
  C   C3        1.0  0.695622924443197  0.21471820032061453  0.5227801054197877  1.0000
  C   C4        1.0  0.6192971050888308  0.14597979872502598  0.5425067702223931  1.0000
  C   C5        1.0  0.5568992322847258  0.25095427461041475  0.5125535397799361  1.0000
  C   C6        1.0  0.4639229027503369  0.2315466551351519  0.5181933304128301  1.0000
  C   C7        1.0  0.40947713849695255  0.3505473800011478  0.4840543399440678  1.0000
  C   C8        1.0  0.3213647064709785  0.33463364076038604  0.48868678420619216  1.0000
  C   C9        1.0  0.26620201041005526  0.45709670341832487  0.45354534536413893  1.0000
  N   N2        1.0  0.22186418303832503  0.5555411981003225  0.4252947327268797  1.0000
  C   C10       1.0  0.2870178062082164  0.19954207309602087  0.5275112862225058  1.0000
  C   C11       1.0  0.34053121489574995  0.08078740531735229  0.5615845333549292  1.0000
  C   C12       1.0  0.42846056103265634  0.09626396089834088  0.5570779374705748  1.0000
  O   O1        1.0  0.5926255982609261  0.3753620825770674  0.47694685081760607  1.0000
  H   H1        1.0  0.7583643821581216  0.1668859993835674  0.5363928281510204  1.0000
  H   H2        1.0  0.6112298634311002  0.03295518421318321  0.5748233688823499  1.0000
  H   H3        1.0  0.43546332712469393  0.45567254470068397  0.4538367504245364  1.0000
  H   H4        1.0  0.2189811615493415  0.186063950062475  0.5314323688928801  1.0000
  H   H5        1.0  0.31381047932905304  0.976380933371046  0.5915960101056241  1.0000
  H   H6        1.0  0.4681008893088153  0.0022019509663593353  0.5840755093423045  1.0000
  C   C13       1.0  0.004120999184467284  0.13456515400707758  0.4213966384174288  1.0000
  C   C14       1.0  0.9519431867130097  0.21590399179862851  0.32157282501110696  1.0000
  C   C15       1.0  0.8938295754653712  0.14852794258604196  0.23310731808803523  1.0000
  C   C16       1.0  0.890123977771739  0.9973274567252597  0.24152555314554025  1.0000
  C   C17       1.0  0.942348687866672  0.9150116616241434  0.338229212578675  1.0000
  C   C18       1.0  0.00046390895714876527  0.9813956678203927  0.4277678210161209  1.0000
  C   C19       1.0  0.8400621026002506  0.23743074122985888  0.12410458417494774  1.0000
  F   F1        1.0  0.8185646519003511  0.36938105517411435  0.1764405602473189  1.0000
  F   F2        1.0  0.7659351048563073  0.16668793303063012  0.09373511975367999  1.0000
  F   F3        1.0  0.8851079400240937  0.2610082207296236  0.99794025117632  1.0000
  H   H7        1.0  0.10637462522762159  0.2138521646903493  0.7329304031179462  1.0000
  H   H8        1.0  0.9552901611966291  0.3327981964585027  0.31487236711367794  1.0000
  H   H9        1.0  0.8474036251895429  0.9423244944582924  0.1720438242513458  1.0000
  H   H10       1.0  0.9389004419092847  0.7982917648575781  0.34015803785636334  1.0000
  H   H11       1.0  0.18328661856242223  0.8644125194596977  0.6019217438341619  1.0000
  C   C20       1.0  6.0518081760327206e-05  0.5556667271564577  0.0011140479936773157  1.0000
  C   C21       1.0  0.03663449907793481  0.43732712574686206  0.08306712457951249  1.0000
  C   C22       1.0  0.08059848879591053  0.32748148552657685  0.016481694590882116  1.0000
  C   C23       1.0  0.08540060255388487  0.3340674377565982  0.8653976420066987  1.0000
  C   C24       1.0  0.04833738212359706  0.44941059673359396  0.7824520338042458  1.0000
  C   C25       1.0  0.004524424231109101  0.5602941228785296  0.848050343235955  1.0000
  C   C26       1.0  0.11741413215878865  0.19960374307681739  0.1059887007322926  1.0000
  F   F4        1.0  0.14577033350423485  0.24119268387037993  0.23863034349926293  1.0000
  F   F5        1.0  0.18521758116229248  0.13921115952604923  0.036641169768644184  1.0000
  F   F6        1.0  0.05565076610104233  0.09650919040051575  0.12803993380237322  1.0000
  H   H12       1.0  0.944864311395607  0.8996188480128567  0.07974085349031523  1.0000
  H   H13       1.0  0.032425487840790135  0.43225164740277316  0.1998603689282652  1.0000
  H   H14       1.0  0.1170867469855092  0.24901727113332206  0.8109550474492329  1.0000
  H   H15       1.0  0.05196650404133151  0.44983132527503766  0.6658127712196928  1.0000
  H   H16       1.0  0.8514084095928502  0.8051838143208676  0.7280914461558448  1.0000
  Zn  Zn1       1.0  0.9094422756311443  0.5590159087308886  0.4242803937286177  1.0000
  Zn  Zn2       1.0  0.09513453299923963  0.5569443127962117  0.42488332465852663  1.0000
  C   C27       1.0  0.0037035491336490103  0.5536752917903023  0.687918043404953  1.0000
  C   C28       1.0  0.0008752801396609824  0.5622867271913663  0.16124583679116825  1.0000
  C   C29       1.0  0.0011205394831010904  0.8212953317860407  0.42081702212771505  1.0000
  C   C30       1.0  0.003458234312869292  0.29466495597223474  0.42834692171118594  1.0000
  O   O2        1.0  0.0716179928228082  0.5637160093385168  0.2152162897527985  1.0000
  O   O3        1.0  0.07389696567611787  0.5506726262419219  0.6344047777697095  1.0000
  O   O4        1.0  0.07181021066060772  0.7667792118461154  0.4187188214994442  1.0000
  O   O5        1.0  0.07370468385970418  0.34760943416508105  0.4309021377710869  1.0000
  O   O6        1.0  0.930872061402979  0.7683507880704816  0.4182615804027333  1.0000
  O   O7        1.0  0.9329588085281278  0.5522459343981434  0.6339474728168953  1.0000
  O   O8        1.0  0.9306798268101436  0.5652892577752682  0.21475725065872142  1.0000
  O   O9        1.0  0.9327665184579532  0.3491826728795373  0.4304432067156634  1.0000
