data_image0
_chemical_formula_structural       NC9NC3OH6C7OC3OC4H11C7OC3NC3H11Zn2C4O8
_chemical_formula_sum              "N3 C43 O12 H28 Zn2"
_cell_length_a       15.78231758774541
_cell_length_b       10.299371110280154
_cell_length_c       10.298749378158432
_cell_angle_alpha    85.57454226300094
_cell_angle_beta     90.0928215232676
_cell_angle_gamma    89.64456115777638

_space_group_name_H-M_alt    "P 1"
_space_group_IT_number       1

loop_
  _space_group_symop_operation_xyz
  'x, y, z'

loop_
  _atom_site_type_symbol
  _atom_site_label
  _atom_site_symmetry_multiplicity
  _atom_site_fract_x
  _atom_site_fract_y
  _atom_site_fract_z
  _atom_site_occupancy
  N   N1        1.0  0.7979234947133459  0.41338497043749256  0.5702445072232947  1.0000
  C   C1        1.0  0.7493825960547579  0.3313192524344337  0.5943001827376893  1.0000
  C   C2        1.0  0.6891172697618839  0.22945574849077108  0.6241594737047745  1.0000
  C   C3        1.0  0.7087660337915433  0.10149877841106081  0.6615881386239951  1.0000
  C   C4        1.0  0.6320287623226647  0.03948581616617597  0.6798020921391987  1.0000
  C   C5        1.0  0.5702583447293614  0.13418861549653413  0.6521418801020378  1.0000
  C   C6        1.0  0.47716548066197706  0.11667950846895556  0.6573476043974373  1.0000
  C   C7        1.0  0.4234319644666332  0.22403701399313292  0.6258262415502249  1.0000
  C   C8        1.0  0.3352239357435517  0.20967996546811737  0.630101971960739  1.0000
  C   C9        1.0  0.28079425838422667  0.32016109392094894  0.5976552315967134  1.0000
  N   N2        1.0  0.2370456908796493  0.4089736672888884  0.5715709508947381  1.0000
  C   C10       1.0  0.3000681189609877  0.08780562468156773  0.6659480124045212  1.0000
  C   C11       1.0  0.352870727090092  0.9806700774580024  0.6974085631771783  1.0000
  C   C12       1.0  0.4408930510428685  0.9946327149252436  0.6932490219391931  1.0000
  O   O1        1.0  0.6067288870792586  0.2464237500821609  0.6192634662395737  1.0000
  H   H1        1.0  0.7712217734593  0.05834710149334479  0.6741595732685101  1.0000
  H   H2        1.0  0.6232856027859777  0.9375202474473198  0.7096432391477718  1.0000
  H   H3        1.0  0.45004766072854374  0.3188768615714617  0.5979269440744784  1.0000
  H   H4        1.0  0.23195052107228759  0.07564595082384852  0.6695672111111247  1.0000
  H   H5        1.0  0.3255247850944452  0.8864786042658231  0.7251175502069103  1.0000
  H   H6        1.0  0.4799703277830012  0.9097738160656436  0.7181762442933092  1.0000
  C   C13       1.0  0.017431498731437456  0.02980847043183288  0.5707927487978359  1.0000
  C   C14       1.0  0.007655011728918023  0.03920678023584023  0.4347686150988594  1.0000
  C   C15       1.0  0.0017669339990145053  0.926769707691569  0.3663271158239456  1.0000
  C   C16       1.0  0.007697100989076498  0.8039384475984923  0.43507984993428045  1.0000
  C   C17       1.0  0.017545779714244855  0.7925401209190703  0.5710339630739496  1.0000
  C   C18       1.0  0.02213415346381506  0.9060751353900184  0.6381407404912736  1.0000
  C   C19       1.0  0.9923272714373798  0.9365567737707033  0.22254154209311067  1.0000
  O   O2        1.0  0.027054046825996096  0.8511751689321375  0.1586190256837452  1.0000
  C   C20       1.0  0.9434824053557312  0.04312324551585722  0.1512781970582826  1.0000
  C   C21       1.0  0.967153293101099  0.08805744392796688  0.02419826417195714  1.0000
  C   C22       1.0  0.9213156916261809  0.1875377193993668  0.9546741625433469  1.0000
  O   O3        1.0  0.9483550659441021  0.22908533789621877  0.8286491881189555  1.0000
  C   C23       1.0  0.9079578110701741  0.3289839176931457  0.7470864885902415  1.0000
  C   C24       1.0  0.8502438861336421  0.2421049823783894  0.012951654411548883  1.0000
  C   C25       1.0  0.8257029390665378  0.19688982881783557  0.13851179428974403  1.0000
  C   C26       1.0  0.8716908295325442  0.09768941509662409  0.2072841197589361  1.0000
  H   H7        1.0  0.037173733649090934  0.21939936070622704  0.8272632491203452  1.0000
  H   H8        1.0  0.005551580628004647  0.13416735016755577  0.3817288419070777  1.0000
  H   H9        1.0  0.00379600098907451  0.7171222643337225  0.3823419364144339  1.0000
  H   H10       1.0  0.02967165395724014  0.8980259204606519  0.7430053824209399  1.0000
  H   H11       1.0  0.02203397509656524  0.46070703062266877  0.6231380228915213  1.0000
  H   H12       1.0  0.02193294529450494  0.04661539476057032  0.9789877228255753  1.0000
  H   H13       1.0  0.9092109026957899  0.42242358538884106  0.7941126162644871  1.0000
  H   H14       1.0  0.8415531071259128  0.30141953637764396  0.7271203055205615  1.0000
  H   H15       1.0  0.813434405937539  0.3189787956759933  0.9619484446328386  1.0000
  H   H16       1.0  0.770602927144123  0.23849661629736785  0.18249955045084482  1.0000
  H   H17       1.0  0.8505635864620059  0.06274429724854835  0.3036057088330886  1.0000
  C   C27       1.0  0.0174495602151703  0.4112026872491335  0.18951218118263613  1.0000
  C   C28       1.0  0.06374991816427444  0.5276029349762816  0.17966925819255805  1.0000
  C   C29       1.0  0.08631213432710932  0.5872723918131864  0.05745099740731052  1.0000
  C   C30       1.0  0.06375329295984011  0.5276517627552253  0.9444252543953549  1.0000
  C   C31       1.0  0.01752768535924565  0.4111458697961262  0.9523145092255833  1.0000
  C   C32       1.0  0.9944745433401146  0.3538431861966136  0.07528074877861822  1.0000
  C   C33       1.0  0.13589198492181898  0.7095429249115617  0.04695939340845022  1.0000
  O   O4        1.0  0.18883866019829987  0.7273539341749593  0.955778204678349  1.0000
  C   C34       1.0  0.12540850758817335  0.8115995843039836  0.13984960738271157  1.0000
  C   C35       1.0  0.046142811955921514  0.8349699899758196  0.19632157095184066  1.0000
  C   C36       1.0  0.03667950274300998  0.9325675930206526  0.28302404956403193  1.0000
  N   N3        1.0  0.9560121675943374  0.9552296988625932  0.3404594366696001  1.0000
  C   C37       1.0  0.10660838885059776  0.008116615961081486  0.3126570324080861  1.0000
  C   C38       1.0  0.18520667801098523  0.9867035762336023  0.2557243347048292  1.0000
  C   C39       1.0  0.1946212045148007  0.8894181353846857  0.1693986117926385  1.0000
  H   H18       1.0  0.9310874713913553  0.1902385557488364  0.41555394825583436  1.0000
  H   H19       1.0  0.0831070413235448  0.5712545156624074  0.2672877253385919  1.0000
  H   H20       1.0  0.0816296718877369  0.5729943816522467  0.8500873147028543  1.0000
  H   H21       1.0  0.9587893558720202  0.26411716604390945  0.08211608751637889  1.0000
  H   H22       1.0  0.9304912368690825  0.1907675042752466  0.7599378081592166  1.0000
  H   H23       1.0  0.9914634631381718  0.7785117608027612  0.17209540550555458  1.0000
  H   H24       1.0  0.9034626305140543  0.8994852547885293  0.319054930114605  1.0000
  H   H25       1.0  0.9482596212862824  0.027826338612552345  0.4049466422115271  1.0000
  H   H26       1.0  0.10010894754787047  0.08379664219439989  0.37939434279520734  1.0000
  H   H27       1.0  0.238981208889124  0.04563072380241717  0.27854189978908006  1.0000
  H   H28       1.0  0.256174395613745  0.8741550199639971  0.12657945458604059  1.0000
  Zn  Zn1       1.0  0.9246446715683664  0.41210849408618144  0.5706347832173365  1.0000
  Zn  Zn2       1.0  0.11032448503171217  0.4102395433265673  0.571191288765746  1.0000
  C   C40       1.0  0.017510270921196263  0.40598294313267247  0.8081268963673021  1.0000
  C   C41       1.0  0.017460913555231054  0.4163667124894328  0.33369930968821165  1.0000
  C   C42       1.0  0.01751927946237795  0.6483680234618301  0.5658127312769551  1.0000
  C   C43       1.0  0.017451841427836165  0.17398007248252287  0.5760135433397362  1.0000
  O   O5        1.0  0.087929244521884  0.4173848836912845  0.38230101634406766  1.0000
  O   O6        1.0  0.0879686218497086  0.40354530184931336  0.759947190358561  1.0000
  O   O7        1.0  0.0879749466035446  0.5992743290534004  0.5642767852152105  1.0000
  O   O8        1.0  0.08792285639952041  0.2216558664224626  0.5779713239175563  1.0000
  O   O9        1.0  0.9470462368371505  0.6006921716294817  0.563854747868787  1.0000
  O   O10       1.0  0.9470399123061193  0.40496470474234214  0.7595250842542218  1.0000
  O   O11       1.0  0.9470005348678898  0.4188042414438182  0.3818773486928579  1.0000
  O   O12       1.0  0.9469941467506457  0.223075214878927  0.5775477536394694  1.0000
