data_image0
_chemical_formula_structural       NC5NC3OH4C6NCOH7C6ClH5Zn2C4O8
_chemical_formula_sum              "N3 C25 O10 H16 Cl1 Zn2"
_cell_length_a       13.84702359539666
_cell_length_b       9.273730183620394
_cell_length_c       10.302974078461048
_cell_angle_alpha    85.70652844495697
_cell_angle_beta     89.98558386727187
_cell_angle_gamma    90.59516689586259

_space_group_name_H-M_alt    "P 1"
_space_group_IT_number       1

loop_
  _space_group_symop_operation_xyz
  'x, y, z'

loop_
  _atom_site_type_symbol
  _atom_site_label
  _atom_site_symmetry_multiplicity
  _atom_site_fract_x
  _atom_site_fract_y
  _atom_site_fract_z
  _atom_site_occupancy
  N   N1        1.0  0.9203430583688117  0.5783503821677254  0.5712900942101151  1.0000
  C   C1        1.0  0.8481385852271458  0.5696807064252702  0.6280650651760931  1.0000
  C   C2        1.0  0.7582169577640416  0.5588851289934487  0.6987618666799651  1.0000
  C   C3        1.0  0.6707054559097806  0.569314341600329  0.6304636813957605  1.0000
  C   C4        1.0  0.5827722567582205  0.5590063036109911  0.6979679781709742  1.0000
  C   C5        1.0  0.4929959998827473  0.5697439881418132  0.6276503938675521  1.0000
  N   N2        1.0  0.4208275130330276  0.5783762621136626  0.5711206620775275  1.0000
  C   C6        1.0  0.5823449904557683  0.5382379449077528  0.8339733732929963  1.0000
  C   C7        1.0  0.6694761959928074  0.5277990106677906  0.9023328083301205  1.0000
  C   C8        1.0  0.7577243616149485  0.5380406178775634  0.8352648865562728  1.0000
  O   O1        1.0  0.8445758113468373  0.5275838628697167  0.9037426287393578  1.0000
  H   H1        1.0  0.6710410461284334  0.5854039969029887  0.5250984043583364  1.0000
  H   H2        1.0  0.5147337599789028  0.5301249723675954  0.8871023611409904  1.0000
  H   H3        1.0  0.6683624742657776  0.5117412686546876  0.007489739710444752  1.0000
  H   H4        1.0  0.8460032166127192  0.5125553100446796  0.002158976504363699  1.0000
  C   C9        1.0  0.1676398259201599  0.1548625490551736  0.5702404412395741  1.0000
  C   C10       1.0  0.1818020427599219  0.23835055773694933  0.45189002350249813  1.0000
  C   C11       1.0  0.20339006977494067  0.17354423486630788  0.33700399686816285  1.0000
  C   C12       1.0  0.213877636932164  0.023089413323688305  0.34136076236627577  1.0000
  C   C13       1.0  0.19863248321593607  0.9384315070110705  0.45737650520903556  1.0000
  C   C14       1.0  0.17353991604637442  0.0018530326049488429  0.572181518877166  1.0000
  N   N3        1.0  0.21971413776071236  0.26332215006553894  0.21891333186414677  1.0000
  C   C15       1.0  0.19559135624619683  0.22236611588922517  0.09138219854275276  1.0000
  O   O2        1.0  0.1459475697927417  0.11046207525707308  0.075633331954851  1.0000
  H   H5        1.0  0.18277780260457616  0.23149280451939205  0.8892727456570761  1.0000
  H   H6        1.0  0.1775055064442217  0.3551769416118349  0.4490281570697767  1.0000
  H   H7        1.0  0.23483415591456236  0.9705964889799301  0.2555568071104999  1.0000
  H   H8        1.0  0.2048468053797941  0.8221403206434376  0.45666241235358096  1.0000
  H   H9        1.0  0.17959391125746516  0.7030354100140281  0.7868520030937847  1.0000
  H   H10       1.0  0.2447892527106155  0.3690968798590193  0.22603578491502718  1.0000
  H   H11       1.0  0.21802105111836534  0.2909812966805696  0.00697698711732375  1.0000
  C   C16       1.0  0.1705898670002619  0.5783577891123401  0.18996846677911952  1.0000
  C   C17       1.0  0.1527479314961775  0.42856992615157585  0.19886455875173592  1.0000
  C   C18       1.0  0.1438952992245175  0.3542492683280425  0.08632176572579686  1.0000
  C   C19       1.0  0.1527479752553107  0.4285700076006383  0.9637566599526562  1.0000
  C   C20       1.0  0.17058986401838472  0.5783577146694165  0.9524534856827743  1.0000
  C   C21       1.0  0.1794238778360407  0.6525215244435876  0.06621040777196185  1.0000
  Cl  Cl1       1.0  0.12160648628939731  0.1671286430736696  0.0989386407593902  1.0000
  H   H12       1.0  0.17731117299937393  0.6347802917825267  0.5139204013793559  1.0000
  H   H13       1.0  0.14565179023624153  0.3689957952012066  0.2929279719822185  1.0000
  H   H14       1.0  0.1456518575767967  0.36899577462624994  0.8777270058383021  1.0000
  H   H15       1.0  0.19318407069394383  0.7680424201899476  0.05842114961427636  1.0000
  H   H16       1.0  0.1773109891471043  0.634780279010908  0.6208927709309546  1.0000
  Zn  Zn1       1.0  0.06477203230524298  0.5783539897941583  0.5712486768164242  1.0000
  Zn  Zn2       1.0  0.2763984328362381  0.578360854218644  0.5711726476965309  1.0000
  C   C22       1.0  0.17054767613819882  0.5726125140655101  0.8083142980449392  1.0000
  C   C23       1.0  0.17062511263249935  0.5841041496688302  0.334107157232038  1.0000
  C   C24       1.0  0.17241968214297376  0.8417537664739039  0.5666411267523185  1.0000
  C   C25       1.0  0.1687530223447369  0.3149611645806043  0.5757803937955248  1.0000
  O   O3        1.0  0.25094801366268804  0.5860289941126174  0.3824525513979329  1.0000
  O   O4        1.0  0.25084430883083675  0.5706917916034486  0.7599108233208733  1.0000
  O   O5        1.0  0.25235489472214945  0.788026756643736  0.5647580314497223  1.0000
  O   O6        1.0  0.24943735562948668  0.3686940393865552  0.5776052459762808  1.0000
  O   O7        1.0  0.09173303729430127  0.7880208046254749  0.5648160785557937  1.0000
  O   O8        1.0  0.09022246346828222  0.5706875722642473  0.7599688051751989  1.0000
  O   O9        1.0  0.0903261680143217  0.5860247245178687  0.38250897225397407  1.0000
  O   O10       1.0  0.08881550990531539  0.36868975947680904  0.5776617641442454  1.0000
