data_image0
_chemical_formula_structural       NC9NC3OH6C6NCOCH9C6NO2H3Zn2C4O8
_chemical_formula_sum              "N4 C30 O12 H18 Zn2"
_cell_length_a       15.78231758774541
_cell_length_b       10.300268703208218
_cell_length_c       9.273395971720356
_cell_angle_alpha    84.96326544088495
_cell_angle_beta     89.96902430017013
_cell_angle_gamma    89.61162997741629

_space_group_name_H-M_alt    "P 1"
_space_group_IT_number       1

loop_
  _space_group_symop_operation_xyz
  'x, y, z'

loop_
  _atom_site_type_symbol
  _atom_site_label
  _atom_site_symmetry_multiplicity
  _atom_site_fract_x
  _atom_site_fract_y
  _atom_site_fract_z
  _atom_site_occupancy
  N   N1        1.0  0.7993440330304317  0.42813748429070464  0.4102915051416758  1.0000
  C   C1        1.0  0.7508010966828504  0.34582676909400845  0.4370592752057656  1.0000
  C   C2        1.0  0.6905332406445781  0.24365916044656097  0.47028497381913525  1.0000
  C   C3        1.0  0.7101789352564487  0.11532100961597978  0.5119335327061192  1.0000
  C   C4        1.0  0.6334400745066988  0.05312253889548147  0.5322009266803507  1.0000
  C   C5        1.0  0.5716718723092543  0.14810702738327497  0.5014221141103719  1.0000
  C   C6        1.0  0.4785784734391461  0.13054488839150502  0.5072146546222742  1.0000
  C   C7        1.0  0.4248476938494157  0.23822343585385197  0.47213956126194573  1.0000
  C   C8        1.0  0.3366392168305489  0.2238228281075367  0.4768972655305561  1.0000
  C   C9        1.0  0.2822123669515894  0.33463442492525397  0.4407924773005134  1.0000
  N   N2        1.0  0.23846607413320872  0.4237126655787564  0.4117674544677772  1.0000
  C   C10       1.0  0.3014802083011309  0.1015833872576486  0.5167845261906643  1.0000
  C   C11       1.0  0.35428007953746365  0.9941274166424198  0.5517919461832057  1.0000
  C   C12       1.0  0.4423028412060503  0.008132429883382482  0.5471635298283188  1.0000
  O   O1        1.0  0.608145173168644  0.26067701123552656  0.4648368836800867  1.0000
  H   H1        1.0  0.7726337091879646  0.0720413123676138  0.5259223957433297  1.0000
  H   H2        1.0  0.6246944482640258  0.9508530593036403  0.5654064944817816  1.0000
  H   H3        1.0  0.45146588029867296  0.33334744499884317  0.4410949512936919  1.0000
  H   H4        1.0  0.23336223362533998  0.08938684302186338  0.520811694978258  1.0000
  H   H5        1.0  0.3269316638007107  0.8996537201653191  0.582624789960295  1.0000
  H   H6        1.0  0.48137793887783864  0.9230196475512998  0.5749010424942878  1.0000
  C   C13       1.0  0.01899516875908858  0.04457645054632442  0.4110383037809089  1.0000
  C   C14       1.0  0.03345027658044253  0.05522920922960339  0.26102159874128583  1.0000
  C   C15       1.0  0.04188971210417281  0.9432822126613128  0.18574034726070487  1.0000
  C   C16       1.0  0.03325855261855981  0.8200712833263967  0.2610569688617297  1.0000
  C   C17       1.0  0.018822996497775975  0.8072635490207675  0.4110331327682557  1.0000
  C   C18       1.0  0.012086393849521487  0.9201215156707387  0.4853207968064331  1.0000
  N   N3        1.0  0.05537032416586339  0.9526152119758284  0.03178245640303845  1.0000
  C   C19       1.0  0.10520119054160787  0.051950807191620804  0.9543797872897289  1.0000
  O   O2        1.0  0.1529690607155142  0.12383749965160383  0.0212041789944637  1.0000
  C   C20       1.0  0.10541983069918243  0.064356577333603  0.7926630366207514  1.0000
  H   H7        1.0  0.012267638180407664  0.3679905687843049  0.4677315667234072  1.0000
  H   H8        1.0  0.03646784570925421  0.15060076797453448  0.20230278442300015  1.0000
  H   H9        1.0  0.038585459365698016  0.7342115245026909  0.20198168563191038  1.0000
  H   H10       1.0  0.0009606865010922719  0.9110957549357337  0.601030552051627  1.0000
  H   H11       1.0  0.012100580865543666  0.47504231110987827  0.4675173802244119  1.0000
  H   H12       1.0  0.03209729689188468  0.8779715991316556  0.9736994985565679  1.0000
  H   H13       1.0  0.04061638495605677  0.04835970399655687  0.7515167456193642  1.0000
  H   H14       1.0  0.1264743355742881  0.16320052900030071  0.7506392241794866  1.0000
  H   H15       1.0  0.14919953857773982  0.9905639270369988  0.7530706411875512  1.0000
  C   C21       1.0  0.01939037264282683  0.4299045523600711  0.9871006062789927  1.0000
  C   C22       1.0  0.9438635203217602  0.4603061528959309  0.057433273687382165  1.0000
  C   C23       1.0  0.8681022676915954  0.47843098460652445  0.9807491043814057  1.0000
  C   C24       1.0  0.8657185687002517  0.4665245880466864  0.8314465263403635  1.0000
  C   C25       1.0  0.9411996392005019  0.4383486022536096  0.7596760137258602  1.0000
  C   C26       1.0  0.018427784541060758  0.4219354205639825  0.8349708679913844  1.0000
  N   N4        1.0  0.7871654051351946  0.48424478223506867  0.7530448912501297  1.0000
  O   O3        1.0  0.713524108590083  0.5128953076081628  0.8235718004996659  1.0000
  O   O4        1.0  0.7844693649655374  0.47356992975484896  0.6200403518641702  1.0000
  H   H16       1.0  0.20483125880145533  0.28255386114198466  0.10414672140104653  1.0000
  H   H17       1.0  0.8110730064344118  0.5005389239424407  0.03894027608229011  1.0000
  H   H18       1.0  0.14486427975273639  0.3265112980625915  0.5639471282453631  1.0000
  Zn  Zn1       1.0  0.9260651562157531  0.42685703010825365  0.41072576210253114  1.0000
  Zn  Zn2       1.0  0.11174491145003236  0.4249824099374677  0.4113449988301723  1.0000
  C   C27       1.0  0.018609028788560748  0.4182683770819964  0.6747052436153096  1.0000
  C   C28       1.0  0.019203065963659064  0.43357267969314517  0.14736566576188692  1.0000
  C   C29       1.0  0.018857722068929873  0.6631535483337585  0.4052813134008151  1.0000
  C   C30       1.0  0.01895430958857001  0.1886859481384766  0.41678967274227285  1.0000
  O   O5        1.0  0.08960470484312694  0.434086662711177  0.20138708091300234  1.0000
  O   O6        1.0  0.08913402848775505  0.41633062496592976  0.6211533992463543  1.0000
  O   O7        1.0  0.08933389985748863  0.6140784932286845  0.40359166620209685  1.0000
  O   O8        1.0  0.08940477023425975  0.2363388053952049  0.418948705502825  1.0000
  O   O9        1.0  0.9484052340681466  0.6155006352917172  0.4031220552109698  1.0000
  O   O10       1.0  0.948205362429753  0.41775432797307005  0.6206837112704262  1.0000
  O   O11       1.0  0.948676040822162  0.4355103367778048  0.20091565726231764  1.0000
  O   O12       1.0  0.9484761060890494  0.2377624691562514  0.41847739008766616  1.0000
