data_image0
_chemical_formula_structural       NC9NC3SH6C8H6C8H6Zn2C4O8
_chemical_formula_sum              "N2 C32 S1 H18 Zn2 O8"
_cell_length_a       16.77567553997237
_cell_length_b       9.27514070457351
_cell_length_c       9.275144076552241
_cell_angle_alpha    86.09146216302537
_cell_angle_beta     90.85075607413872
_cell_angle_gamma    91.48491386358626

_space_group_name_H-M_alt    "P 1"
_space_group_IT_number       1

loop_
  _space_group_symop_operation_xyz
  'x, y, z'

loop_
  _atom_site_type_symbol
  _atom_site_label
  _atom_site_symmetry_multiplicity
  _atom_site_fract_x
  _atom_site_fract_y
  _atom_site_fract_z
  _atom_site_occupancy
  N   N1        1.0  0.7527791152887029  0.5877297604414828  0.4217004480996618  1.0000
  C   C1        1.0  0.6985525621333599  0.6428403699307477  0.4680182535852547  1.0000
  C   C2        1.0  0.6312565736117459  0.7112289891812176  0.525495107876508  1.0000
  C   C3        1.0  0.6344279089680304  0.8098107337436462  0.63125919919338  1.0000
  C   C4        1.0  0.5592254186168554  0.8583394813276203  0.6663626059378374  1.0000
  C   C5        1.0  0.4965245154724198  0.7977585585232132  0.587824808220839  1.0000
  C   C6        1.0  0.4102543616197068  0.826790464928755  0.599944642431834  1.0000
  C   C7        1.0  0.3526387649236052  0.7379420886974934  0.5350169132589127  1.0000
  C   C8        1.0  0.2712002046316613  0.7647329219146413  0.5459581117905257  1.0000
  C   C9        1.0  0.21289314049330044  0.6729099049169395  0.4794738722090915  1.0000
  N   N2        1.0  0.1660314035719231  0.5990973598968206  0.426030365588  1.0000
  C   C10       1.0  0.24654861191721017  0.8807190442934547  0.6216490989612979  1.0000
  C   C11       1.0  0.3030712682248608  0.9697401052077662  0.6860649069354854  1.0000
  C   C12       1.0  0.3843559621431287  0.9433550143643861  0.675451756990312  1.0000
  S   S1        1.0  0.5359531364574441  0.6835830949408432  0.47529805579473766  1.0000
  H   H1        1.0  0.6892625925852813  0.845557503178869  0.6821542742305913  1.0000
  H   H2        1.0  0.551760434196263  0.934329662504076  0.7481254591996502  1.0000
  H   H3        1.0  0.3706553219236758  0.6472408317095728  0.47656444567458517  1.0000
  H   H4        1.0  0.1837290144985966  0.902393061853556  0.6306829061809125  1.0000
  H   H5        1.0  0.2838685723344128  0.05975971440156248  0.744163210987139  1.0000
  H   H6        1.0  0.426432288626966  0.015496512406799834  0.7253207124374645  1.0000
  C   C13       1.0  0.9569822552528741  0.16989910812901088  0.422831985463044  1.0000
  C   C14       1.0  0.9677800481373149  0.25271555256646905  0.2914579360248679  1.0000
  C   C15       1.0  0.9855549105184779  0.18700367972782295  0.16532320860182237  1.0000
  C   C16       1.0  0.9929598632958976  0.037296681521660435  0.16814104861270596  1.0000
  C   C17       1.0  0.9811302397827776  0.9528544414242972  0.29714191516969635  1.0000
  C   C18       1.0  0.9618358666208784  0.016917240487112954  0.4249114179581466  1.0000
  C   C19       1.0  0.011804595928284861  0.9698350759863904  0.037988490210269406  1.0000
  C   C20       1.0  0.027583035443081272  0.913337601573778  0.9290229009651422  1.0000
  H   H7        1.0  0.9716102164407887  0.24929156366424032  0.7771631312369303  1.0000
  H   H8        1.0  0.9643314663116117  0.3694145895273302  0.2870067615422236  1.0000
  H   H9        1.0  0.9943049453718836  0.2532862133999507  0.06576709630782651  1.0000
  H   H10       1.0  0.9851491475609163  0.8363565116082534  0.29700596219823083  1.0000
  H   H11       1.0  0.968625003486935  0.7202518655220506  0.6636132792625584  1.0000
  H   H12       1.0  0.041433116626926836  0.8637429872998645  0.8333739959106801  1.0000
  C   C21       1.0  0.9575138943934915  0.5904052893888176  0.0005592581576485651  1.0000
  C   C22       1.0  0.906061576816445  0.6830309019019696  0.06621913601165685  1.0000
  C   C23       1.0  0.8610486641802988  0.7829781884520477  0.9830547071272057  1.0000
  C   C24       1.0  0.8666752692206988  0.7923476294017036  0.8327052539899191  1.0000
  C   C25       1.0  0.9164715334971738  0.6995707167485637  0.7652719384086506  1.0000
  C   C26       1.0  0.9613042478933429  0.5964110967730294  0.8471841539206717  1.0000
  C   C27       1.0  0.8205269085678594  0.8962275835745522  0.7471685084272934  1.0000
  C   C28       1.0  0.7818916334136263  0.9831995673091054  0.6755380648771818  1.0000
  H   H13       1.0  0.1221998575308889  0.4056439598049373  0.12043542104084805  1.0000
  H   H14       1.0  0.9020590247329668  0.6804967861622622  0.18284151565982798  1.0000
  H   H15       1.0  0.8223938289793294  0.8540142727732498  0.036260781004305846  1.0000
  H   H16       1.0  0.918791973220371  0.7056264180468306  0.6482259927099396  1.0000
  H   H17       1.0  0.0704324818883386  0.46738484630233934  0.5781971660665026  1.0000
  H   H18       1.0  0.7479778789647497  0.05954240880794215  0.6126599280706624  1.0000
  Zn  Zn1       1.0  0.872034817064042  0.5910064126755958  0.42295829257101114  1.0000
  Zn  Zn2       1.0  0.04677568241345044  0.5958090264888083  0.4247843303134089  1.0000
  C   C29       1.0  0.9605530863012556  0.5895303600412354  0.6871397601422014  1.0000
  C   C30       1.0  0.9582593324018678  0.5972869522773041  0.16060302863519893  1.0000
  C   C31       1.0  0.9608886246403955  0.85677192055449  0.4187739440280889  1.0000
  C   C32       1.0  0.9579237248509475  0.3300436579363015  0.4289689167260131  1.0000
  O   O1        1.0  0.02482271988352958  0.6014127762488906  0.21500813638582827  1.0000
  O   O2        1.0  0.026613964299125218  0.589048517892093  0.6341201551532656  1.0000
  O   O3        1.0  0.02688402852773164  0.8048494438011329  0.41741285424814456  1.0000
  O   O4        1.0  0.02455259560292667  0.38561185825121913  0.4317153286090978  1.0000
  O   O5        1.0  0.8942578442440594  0.8012035792758052  0.41602729364460656  1.0000
  O   O6        1.0  0.893987789596726  0.5854043855571329  0.63273452194231  1.0000
  O   O7        1.0  0.8921965371869466  0.5977685813637035  0.2136207699262309  1.0000
  O   O8        1.0  0.8919264133278337  0.38196765381728315  0.4303280702006371  1.0000
