data_image0
_chemical_formula_structural       NC6NSH2C4OC8H10C6H6Zn2C4O8
_chemical_formula_sum              "N2 C28 S1 H18 O9 Zn2"
_cell_length_a       14.474562073675546
_cell_length_b       15.444553060097464
_cell_length_c       10.302890899224296
_cell_angle_alpha    85.53650846548152
_cell_angle_beta     90.00590449567315
_cell_angle_gamma    90.01628193322479

_space_group_name_H-M_alt    "P 1"
_space_group_IT_number       1

loop_
  _space_group_symop_operation_xyz
  'x, y, z'

loop_
  _atom_site_type_symbol
  _atom_site_label
  _atom_site_symmetry_multiplicity
  _atom_site_fract_x
  _atom_site_fract_y
  _atom_site_fract_z
  _atom_site_occupancy
  N   N1        1.0  0.8701334465981737  0.9475620047298061  0.5669238352576011  1.0000
  C   C1        1.0  0.7920937599228987  0.9325556386417551  0.5590536823008088  1.0000
  C   C2        1.0  0.6952440300537615  0.9139341159375393  0.5492873855397424  1.0000
  C   C3        1.0  0.6578469107957924  0.8376091359012936  0.5092576526364687  1.0000
  C   C4        1.0  0.5611308239732153  0.8376092193598464  0.5092573423718652  1.0000
  C   C5        1.0  0.5237858545617303  0.9139342061179244  0.5492869132558198  1.0000
  C   C6        1.0  0.4269488262197265  0.9325557820600001  0.5590534442274672  1.0000
  N   N2        1.0  0.34891940401502386  0.9475620747465147  0.5669237333855188  1.0000
  S   S1        1.0  0.6095380675798606  0.9816494310126643  0.5848015110639253  1.0000
  H   H1        1.0  0.6989151102617253  0.7836330093421147  0.48094927673103305  1.0000
  H   H2        1.0  0.5200257600468664  0.7836332007134741  0.4809486187087266  1.0000
  C   C7        1.0  0.10944577754581884  0.6932190611066288  0.5672201004538537  1.0000
  C   C8        1.0  0.15517898291646975  0.6197262296865454  0.624916531345559  1.0000
  C   C9        1.0  0.1136697567131939  0.5378458056285779  0.6281779133704071  1.0000
  C   C10       1.0  0.025970402640761447  0.5279423242256428  0.5726623395077814  1.0000
  O   O1        1.0  0.9816444685264134  0.447038919835496  0.5754412478102824  1.0000
  C   C11       1.0  0.0260429941704372  0.3665078468409123  0.5722932549688644  1.0000
  C   C12       1.0  0.9838534280622402  0.2928866256084295  0.6338484595735501  1.0000
  C   C13       1.0  0.025321183415077934  0.21126605621408276  0.6317698393017863  1.0000
  C   C14       1.0  0.10961588036805425  0.2018983240529807  0.566638695566477  1.0000
  C   C15       1.0  0.15124143827431125  0.2757888060633936  0.503056672059339  1.0000
  C   C16       1.0  0.1096276127029141  0.3573235671457409  0.5053376052673253  1.0000
  C   C17       1.0  0.9797581431835781  0.6011911168199021  0.5170129982893745  1.0000
  C   C18       1.0  0.021104896715690817  0.6831500788142353  0.5135711253866919  1.0000
  H   H3        1.0  0.2718659542637465  0.8480715708155955  0.6156598162966065  1.0000
  H   H4        1.0  0.22285761712720853  0.6254532549354096  0.6682018839111115  1.0000
  H   H5        1.0  0.14943189810397972  0.4825830899477607  0.675649722298698  1.0000
  H   H6        1.0  0.9188347659331809  0.2990495123948565  0.6842450353136837  1.0000
  H   H7        1.0  0.9912622790436029  0.15558238429944576  0.6810540913799634  1.0000
  H   H8        1.0  0.14083181631296338  0.9831363573383425  0.6267482243417857  1.0000
  H   H9        1.0  0.21572223545324615  0.2705793506706088  0.45095276125880007  1.0000
  H   H10       1.0  0.1419869786139636  0.41286880359606637  0.4533148930566644  1.0000
  H   H11       1.0  0.911652016279699  0.5944756356485373  0.4755066324686439  1.0000
  H   H12       1.0  0.9838551969317221  0.7385627810057879  0.46905798778284935  1.0000
  C   C19       1.0  0.1095022209179739  0.9474724870995791  0.1856939208038888  1.0000
  C   C20       1.0  0.1384068242744152  0.03456251460102268  0.17448079727828536  1.0000
  C   C21       1.0  0.15274816701285987  0.07777354653468405  0.0520380895402166  1.0000
  C   C22       1.0  0.13848160177226587  0.03478812160076883  0.9394474648490907  1.0000
  C   C23       1.0  0.10955948185429862  0.9476449249797688  0.9481649178636934  1.0000
  C   C24       1.0  0.09522129480990538  0.904443647028512  0.07182625928668451  1.0000
  H   H13       1.0  0.09855066931996667  0.914475655119206  0.5172373104438692  1.0000
  H   H14       1.0  0.14996915898545105  0.06939999371834249  0.2602519811785393  1.0000
  H   H15       1.0  0.17502335023379276  0.14488910853593073  0.044368096630061256  1.0000
  H   H16       1.0  0.15009490583095175  0.0697795539264481  0.8456657369950031  1.0000
  H   H17       1.0  0.05508317585624334  0.7835075424899679  0.757420403404474  1.0000
  H   H18       1.0  0.07293394196686728  0.8372913776119875  0.07954307135837069  1.0000
  Zn  Zn1       1.0  0.008300735272406492  0.9475597002758015  0.5669313114708492  1.0000
  Zn  Zn2       1.0  0.21075211006650924  0.9475572680611134  0.566926919911324  1.0000
  C   C25       1.0  0.10954543251879367  0.9441618733507401  0.8040455073633959  1.0000
  C   C26       1.0  0.10950962395792208  0.9509561878183345  0.3298128501436759  1.0000
  C   C27       1.0  0.10957861060807114  0.10574594546760685  0.5615752580475033  1.0000
  C   C28       1.0  0.1094763764432922  0.7893710751193007  0.5722831698647814  1.0000
  O   O2        1.0  0.18634134887209525  0.9521206479884873  0.37817881711742435  1.0000
  O   O3        1.0  0.18636961642080413  0.9429949137038437  0.7556758343291088  1.0000
  O   O4        1.0  0.1863953725539202  0.0734760957653986  0.5598793914824707  1.0000
  O   O5        1.0  0.18631552365080223  0.821639472101596  0.5739751626178786  1.0000
  O   O6        1.0  0.032737252601394706  0.07347749623709011  0.5598830687589637  1.0000
  O   O7        1.0  0.032711496806912654  0.9429973547594734  0.7556794411950576  1.0000
  O   O8        1.0  0.03268322919235845  0.9521230585090178  0.3781808631634367  1.0000
  O   O9        1.0  0.03265740397252359  0.8216418764492339  0.5739773060047437  1.0000
