data_image0
_chemical_formula_structural       NC5NC3BrH3C6NCH9C6NCH7Zn2C4O8
_chemical_formula_sum              "N4 C26 Br1 H19 Zn2 O8"
_cell_length_a       13.839083392302014
_cell_length_b       9.273386996610926
_cell_length_c       9.273390368590327
_cell_angle_alpha    86.07317832945773
_cell_angle_beta     89.99157220175844
_cell_angle_gamma    89.42455387291925

_space_group_name_H-M_alt    "P 1"
_space_group_IT_number       1

loop_
  _space_group_symop_operation_xyz
  'x, y, z'

loop_
  _atom_site_type_symbol
  _atom_site_label
  _atom_site_symmetry_multiplicity
  _atom_site_fract_x
  _atom_site_fract_y
  _atom_site_fract_z
  _atom_site_occupancy
  N   N1        1.0  0.8990792545177733  0.5625580005803041  0.4075958582714949  1.0000
  C   C1        1.0  0.8275239551976622  0.4989126491849487  0.4101647247998761  1.0000
  C   C2        1.0  0.7383711854799458  0.4197158250435145  0.41336112525699314  1.0000
  C   C3        1.0  0.6502791349162363  0.49592036736490197  0.410285688184167  1.0000
  C   C4        1.0  0.5627576651843337  0.4211886350095744  0.41330162608808707  1.0000
  C   C5        1.0  0.47244666689648296  0.49974471183189073  0.41013112568442117  1.0000
  N   N2        1.0  0.39984831509416763  0.562897636990848  0.4075820948884419  1.0000
  C   C6        1.0  0.5632646024052124  0.2699408394034237  0.4194056213300237  1.0000
  C   C7        1.0  0.6509124594311472  0.19361502119721366  0.4224858614557616  1.0000
  C   C8        1.0  0.7386349760862679  0.26763258675415913  0.419498765776932  1.0000
  Br  Br1       1.0  0.8568116101491005  0.15753564712912627  0.42394210078728034  1.0000
  H   H1        1.0  0.6498312110473498  0.6131246061904048  0.4055554090818494  1.0000
  H   H2        1.0  0.4959837368498159  0.21108471654268923  0.4217806443409948  1.0000
  H   H3        1.0  0.6505954348750387  0.07665999966865499  0.42720570527612534  1.0000
  C   C9        1.0  0.15243967352786725  0.13908336269563404  0.40829714756366586  1.0000
  C   C10       1.0  0.16942963375002518  0.22118530608715156  0.2779805509788864  1.0000
  C   C11       1.0  0.17732157021566897  0.15530250524342115  0.14765614835445917  1.0000
  C   C12       1.0  0.16834317507382335  0.0049602481843471465  0.14431625234102974  1.0000
  C   C13       1.0  0.15305612912101996  0.921891733480058  0.27418011317790825  1.0000
  C   C14       1.0  0.14649719592889696  0.9863612658706888  0.4068933430371162  1.0000
  N   N3        1.0  0.1754187494452808  0.9340118689123197  0.011301200375808845  1.0000
  C   C15       1.0  0.19154109317881907  0.010424321547985753  0.870654758479856  1.0000
  H   H4        1.0  0.17213821925346884  0.40375659333372255  0.6449195110557262  1.0000
  H   H5        1.0  0.17435843049485955  0.3378157468212501  0.27621218403446823  1.0000
  H   H6        1.0  0.18952489578270781  0.2228722852225109  0.04975587525032221  1.0000
  H   H7        1.0  0.14849566277802762  0.8054634034448939  0.2719065672496652  1.0000
  H   H8        1.0  0.1820114786070477  0.858754724020375  0.7579315176815327  1.0000
  H   H9        1.0  0.1685867837339825  0.8216718810437716  0.014290085128541685  1.0000
  H   H10       1.0  0.1316435497613535  0.08869108534465739  0.8456147338800184  1.0000
  H   H11       1.0  0.261480132906571  0.06802597265875708  0.8708854125425489  1.0000
  H   H12       1.0  0.19399236311595147  0.9320824441489586  0.7853301643835051  1.0000
  C   C16       1.0  0.1495447832876906  0.5582236029049963  0.9843569117032964  1.0000
  C   C17       1.0  0.23831245928568912  0.5554173396496753  0.05796171500708014  1.0000
  C   C18       1.0  0.3254381194066447  0.5660208957924417  0.9825270663884789  1.0000
  C   C19       1.0  0.326008898715318  0.5798230458791271  0.8308761916693101  1.0000
  C   C20       1.0  0.237847248940539  0.5801967656472662  0.7564658013405703  1.0000
  C   C21       1.0  0.1493921289892968  0.56722107007623  0.8308335408173262  1.0000
  N   N4        1.0  0.4147560670228661  0.5920887782911386  0.7500652630028521  1.0000
  C   C22       1.0  0.5101591343994358  0.5923235097757199  0.8170505647625612  1.0000
  H   H13       1.0  0.9975159577050927  0.48882203538710955  0.2703159052976683  1.0000
  H   H14       1.0  0.3920233018947441  0.564738561229269  0.04364844595354867  1.0000
  H   H15       1.0  0.9249905012623826  0.45498991283939166  0.7355343281195128  1.0000
  H   H16       1.0  0.41155380356683624  0.6016476920024092  0.6371736739795271  1.0000
  H   H17       1.0  0.5157811498576477  0.6848717912739386  0.8863655928161857  1.0000
  H   H18       1.0  0.5226689205070663  0.48920878849846217  0.8827750430135636  1.0000
  H   H19       1.0  0.5667094714957428  0.603268111119899  0.7321403759656544  1.0000
  Zn  Zn1       1.0  0.04359041677061315  0.5626522329249353  0.40760022232051707  1.0000
  Zn  Zn2       1.0  0.2553372257814148  0.5627917058265774  0.4075895784363506  1.0000
  C   C23       1.0  0.14945911674754964  0.5597731402930015  0.670840862467561  1.0000
  C   C24       1.0  0.1494708252809516  0.5656726217493748  0.14434907661775576  1.0000
  C   C25       1.0  0.14761652916743984  0.8261466697404738  0.4014153298726897  1.0000
  C   C26       1.0  0.15131335274922542  0.29929735980548444  0.4137746889282039  1.0000
  O   O1        1.0  0.22980285893222963  0.5682192159590591  0.1980398798389924  1.0000
  O   O2        1.0  0.22983801935573078  0.5573313100515873  0.6171415676982217  1.0000
  O   O3        1.0  0.22834902306354457  0.772431319049391  0.39957854146658556  1.0000
  O   O4        1.0  0.2312917829166845  0.3531192160850716  0.41560279799200694  1.0000
  O   O5        1.0  0.06763578737653964  0.7723247226203365  0.3995870027609094  1.0000
  O   O6        1.0  0.06912477152175889  0.5572264460728452  0.6171499492730175  1.0000
  O   O7        1.0  0.06908961182766071  0.5681142832890091  0.19804652867467024  1.0000
  O   O8        1.0  0.07057853586104361  0.3530142742450999  0.41560955490235535  1.0000
