data_image0
_chemical_formula_structural       NC9NC3OCH8C12ClH9C13OH12Zn2C4O8
_chemical_formula_sum              "N2 C42 O10 H29 Cl1 Zn2"
_cell_length_a       17.728193572023454
_cell_length_b       10.299768534541528
_cell_length_c       10.299153481560893
_cell_angle_alpha    85.58394017871096
_cell_angle_beta     90.72181207759093
_cell_angle_gamma    88.4716702258364

_space_group_name_H-M_alt    "P 1"
_space_group_IT_number       1

loop_
  _space_group_symop_operation_xyz
  'x, y, z'

loop_
  _atom_site_type_symbol
  _atom_site_label
  _atom_site_symmetry_multiplicity
  _atom_site_fract_x
  _atom_site_fract_y
  _atom_site_fract_z
  _atom_site_occupancy
  N   N1        1.0  0.7106191616372297  0.38637760725612225  0.5852205205985399  1.0000
  C   C1        1.0  0.6499991841524346  0.34895512793661304  0.5982242930583117  1.0000
  C   C2        1.0  0.5745356654303129  0.30243399893394596  0.6144086566975642  1.0000
  C   C3        1.0  0.5626052117299892  0.17440213998909362  0.6238232751777033  1.0000
  C   C4        1.0  0.4858842632576468  0.12495713330794732  0.638771969861186  1.0000
  C   C5        1.0  0.42776082542147986  0.20763148146730775  0.6562460435943493  1.0000
  C   C6        1.0  0.349703912026499  0.16259236660514279  0.6779786446678238  1.0000
  C   C7        1.0  0.288379022290039  0.2480463863232409  0.6425202307078309  1.0000
  C   C8        1.0  0.2140972903376486  0.20875178290295282  0.6626668646175677  1.0000
  C   C9        1.0  0.151793960147477  0.2967418093137282  0.6251341763917092  1.0000
  N   N2        1.0  0.10171549049995271  0.3674772652192754  0.5949614429388306  1.0000
  C   C10       1.0  0.20050913385242625  0.08388368941032232  0.7193260146993707  1.0000
  C   C11       1.0  0.260935680673729  0.9987477206861509  0.7561930345204557  1.0000
  C   C12       1.0  0.33511367201212955  0.037552754717984804  0.7361759644782726  1.0000
  O   O1        1.0  0.44115226572408384  0.34141380080761397  0.654956882658468  1.0000
  C   C13       1.0  0.5088835031231873  0.3987754670736719  0.6063491294227898  1.0000
  H   H1        1.0  0.6095136403436799  0.1049421332799656  0.6217187666351798  1.0000
  H   H2        1.0  0.4782041894021016  0.021309398610781072  0.6367844518301269  1.0000
  H   H3        1.0  0.29828791551422296  0.3448537788945263  0.5980973789543562  1.0000
  H   H4        1.0  0.14328909941471443  0.05260185404591479  0.7354649924792533  1.0000
  H   H5        1.0  0.2502903412790012  0.9025993458176075  0.8010770627329007  1.0000
  H   H6        1.0  0.38063256691819547  0.9703352702779425  0.7685935899855505  1.0000
  H   H7        1.0  0.4994056952675065  0.43466710076063436  0.5028226050968927  1.0000
  H   H8        1.0  0.5217974744064487  0.48317986883269803  0.6629365502930549  1.0000
  C   C14       1.0  0.9060997764949839  0.995565312410413  0.590087179506231  1.0000
  C   C15       1.0  0.9110468699878393  0.004840377041396731  0.4537404886519252  1.0000
  C   C16       1.0  0.9136261519735005  0.8923972555239011  0.3846617319369132  1.0000
  C   C17       1.0  0.9111910034525884  0.7695456999711526  0.4537595686086968  1.0000
  C   C18       1.0  0.9062421346562584  0.7582791920734648  0.5901061531958907  1.0000
  C   C19       1.0  0.9037247908674857  0.8718444576208633  0.6575064306942324  1.0000
  C   C20       1.0  0.918860767865472  0.90326312001466  0.24041832441978483  1.0000
  C   C21       1.0  0.8759163058871372  0.9988504230786833  0.1648843811726124  1.0000
  C   C22       1.0  0.8809105151111641  0.008878643051890785  0.029128046346575065  1.0000
  C   C23       1.0  0.9287760234917063  0.923844591268456  0.9672119625456146  1.0000
  C   C24       1.0  0.9717078622992393  0.8285695717319863  0.041234360016890736  1.0000
  C   C25       1.0  0.9668476692922343  0.8181426295108242  0.1770086761139369  1.0000
  Cl  Cl1       1.0  0.9349579158657467  0.93667658939737  0.7968797107599181  1.0000
  H   H9        1.0  0.9041759691937998  0.3194866765405411  0.6420377630047718  1.0000
  H   H10       1.0  0.9139473925008597  0.09969265104418401  0.401079762752238  1.0000
  H   H11       1.0  0.9121220976559733  0.6826469134450679  0.40083623392455564  1.0000
  H   H12       1.0  0.8999075716944966  0.8639210204336656  0.7626916072294612  1.0000
  H   H13       1.0  0.9043864317678192  0.4265309290548354  0.6420662339889516  1.0000
  H   H14       1.0  0.8377684351976198  0.06468755721392448  0.21067804583015717  1.0000
  H   H15       1.0  0.8473952088211057  0.08259104126136617  0.9721811280315383  1.0000
  H   H16       1.0  0.009013842232859615  0.762725869888896  0.9937302365292315  1.0000
  H   H17       1.0  0.0013203301632949143  0.7446767101910889  0.23248512308771233  1.0000
  C   C26       1.0  0.9061061126396255  0.3767779771408204  0.20872252067091848  1.0000
  C   C27       1.0  0.8280802945612961  0.3561687460141849  0.20745014129036954  1.0000
  C   C28       1.0  0.7886564743651571  0.3458755810310228  0.08964087387607278  1.0000
  C   C29       1.0  0.8282583994318914  0.3564774342442021  0.9721466161290665  1.0000
  C   C30       1.0  0.9062358071412322  0.37706657091964274  0.9714708419358562  1.0000
  C   C31       1.0  0.9447043487676383  0.3870930149890453  0.09028092133192689  1.0000
  C   C32       1.0  0.7061639446291887  0.32409963231015393  0.08926872815748133  1.0000
  C   C33       1.0  0.658448246737503  0.3916416039996118  0.9954139821600486  1.0000
  C   C34       1.0  0.5808179147535529  0.3711930928037016  0.9951417270170251  1.0000
  C   C35       1.0  0.5495964920527333  0.28199068689650253  0.08782227080807181  1.0000
  C   C36       1.0  0.5968061395030386  0.2155694384906994  0.18258296528259588  1.0000
  C   C37       1.0  0.6744400459391722  0.23598812988764603  0.1830334585121285  1.0000
  C   C38       1.0  0.4659639203915604  0.2627459393204694  0.08965518955772755  1.0000
  O   O2        1.0  0.43208521959070045  0.35197025701126944  0.1683203357572174  1.0000
  H   H18       1.0  0.05328789250332002  0.4165131788265643  0.41835019903878434  1.0000
  H   H19       1.0  0.7976543662460838  0.34987550658106725  0.2981677549702162  1.0000
  H   H20       1.0  0.7983151711250792  0.34687234077170165  0.8812214860319094  1.0000
  H   H21       1.0  0.004850248998422571  0.4029776974631592  0.09047548711891573  1.0000
  H   H22       1.0  0.9362186930562673  0.38507227376127784  0.6437286169417868  1.0000
  H   H23       1.0  0.6810197685087429  0.46180621055102117  0.9234199429726773  1.0000
  H   H24       1.0  0.5450228757253258  0.4252026657706467  0.9227704166797919  1.0000
  H   H25       1.0  0.5735391693726003  0.14764481219308512  0.25599960835567637  1.0000
  H   H26       1.0  0.7097815080093415  0.1817999787118414  0.25591668114454236  1.0000
  H   H27       1.0  0.45396772746662045  0.1615393990254732  0.12817322720519142  1.0000
  H   H28       1.0  0.44208006141800743  0.27726529392910026  0.9889297311739575  1.0000
  H   H29       1.0  0.3772233155728153  0.3352681587586501  0.1662501315740461  1.0000
  Zn  Zn1       1.0  0.8234811260917476  0.38091990936087083  0.5880390401022944  1.0000
  Zn  Zn2       1.0  0.9888535514707006  0.3729243636128168  0.5921535609853059  1.0000
  C   C39       1.0  0.9062086285828246  0.3718385181561954  0.8272949181713969  1.0000
  C   C40       1.0  0.9061278551688589  0.3820073061442819  0.3528978553557105  1.0000
  C   C41       1.0  0.9062104554226725  0.6141082987265927  0.5849272638866478  1.0000
  C   C42       1.0  0.9061259716195282  0.1397359680543051  0.5952655774371378  1.0000
  O   O3        1.0  0.9688931246885484  0.38072238314811074  0.4028458538246913  1.0000
  O   O4        1.0  0.9689572032218989  0.3670540270878593  0.7804693719734741  1.0000
  O   O5        1.0  0.9689578326402645  0.5626899802323306  0.5847557553315932  1.0000
  O   O6        1.0  0.9688924388249548  0.185086441985187  0.5985593716867872  1.0000
  O   O7        1.0  0.8434421823039997  0.5687578337183994  0.5816332279898977  1.0000
  O   O8        1.0  0.8434415531616238  0.373123440823405  0.777346775424185  1.0000
  O   O9        1.0  0.8433774744045536  0.38679175103530916  0.3997216958533274  1.0000
  O   O10       1.0  0.8433767885526946  0.1911558006207364  0.5954353110842934  1.0000
