data_image0
_chemical_formula_structural       NC5NC3OH4C6BrH5C9H10Zn2C4O8
_chemical_formula_sum              "N2 C27 O9 H19 Br1 Zn2"
_cell_length_a       13.84702359539666
_cell_length_b       9.276564384272257
_cell_length_c       10.29718717394978
_cell_angle_alpha    85.51933545767109
_cell_angle_beta     89.95979786321969
_cell_angle_gamma    90.58678901707502

_space_group_name_H-M_alt    "P 1"
_space_group_IT_number       1

loop_
  _space_group_symop_operation_xyz
  'x, y, z'

loop_
  _atom_site_type_symbol
  _atom_site_label
  _atom_site_symmetry_multiplicity
  _atom_site_fract_x
  _atom_site_fract_y
  _atom_site_fract_z
  _atom_site_occupancy
  N   N1        1.0  0.9206709025305424  0.578081070576021  0.5656608290274818  1.0000
  C   C1        1.0  0.8484482907938381  0.5694195657161845  0.6224937565324662  1.0000
  C   C2        1.0  0.758504076958473  0.5586341627550571  0.6932627261525253  1.0000
  C   C3        1.0  0.6710143951697233  0.5690535460970858  0.6248948215639032  1.0000
  C   C4        1.0  0.5830596295910465  0.5587552231210919  0.6924680273989119  1.0000
  C   C5        1.0  0.49330583793330307  0.5694827877563371  0.622078662044137  1.0000
  N   N2        1.0  0.42115541132463075  0.5781069261374576  0.565491223914411  1.0000
  C   C6        1.0  0.5825889119804566  0.5380064379044363  0.8286122583976382  1.0000
  C   C7        1.0  0.6696982779186312  0.5275773417614689  0.8970414763940358  1.0000
  C   C8        1.0  0.7579678705344668  0.5378092967500842  0.8299050903891678  1.0000
  O   O1        1.0  0.8447974428472925  0.5273623968541665  0.8984527355494896  1.0000
  H   H1        1.0  0.671383647711824  0.5851280375410872  0.5194219860738192  1.0000
  H   H2        1.0  0.5149607077398833  0.5299011115302144  0.8817954810683379  1.0000
  H   H3        1.0  0.6685509604215872  0.5115347336179379  0.0023057532436547828  1.0000
  H   H4        1.0  0.8461934058507333  0.5123480078195841  0.9969695482694364  1.0000
  C   C9        1.0  0.1680080607302799  0.15461292540724636  0.5659091657223051  1.0000
  C   C10       1.0  0.15567184246460797  0.23809535568947182  0.44719007046753617  1.0000
  C   C11       1.0  0.15232283130299518  0.17309024406854956  0.32957686362168287  1.0000
  C   C12       1.0  0.16128932708982083  0.0236833930309297  0.32844950531465034  1.0000
  C   C13       1.0  0.17192484071762015  0.9385073005548499  0.445373880620635  1.0000
  C   C14       1.0  0.1738273999419615  0.0015639392705750776  0.56525404757791  1.0000
  Br  Br1       1.0  0.15741798198493107  0.9353033685082086  0.16706339063830677  1.0000
  H   H5        1.0  0.13961866658311606  0.41719271351494336  0.7771023897372072  1.0000
  H   H6        1.0  0.15090678846290786  0.3547511983336753  0.4449678653970601  1.0000
  H   H7        1.0  0.1436748124312397  0.23929766771746455  0.23909811493526778  1.0000
  H   H8        1.0  0.17639406671970836  0.822267166345789  0.44257178308966383  1.0000
  H   H9        1.0  0.22703386126416936  0.7036616676301872  0.7675486673415995  1.0000
  C   C15       1.0  0.17104504139127213  0.5780363253070386  0.18412847216477246  1.0000
  C   C16       1.0  0.07344924420274213  0.6176411141584524  0.18064909879579338  1.0000
  C   C17       1.0  0.023448039087910166  0.6379315729640964  0.06225010968234578  1.0000
  C   C18       1.0  0.07307091113245545  0.6177940885935711  0.9454263839738375  1.0000
  C   C19       1.0  0.1707904246086016  0.5781405956549648  0.9470347877437576  1.0000
  C   C20       1.0  0.21913933543154074  0.5585192451606018  0.06677482422315828  1.0000
  C   C21       1.0  0.9178911480519231  0.6807666876669881  0.06791908894763753  1.0000
  C   C22       1.0  0.8498826669570384  0.6227596563170611  0.9677150237424227  1.0000
  C   C23       1.0  0.8796928553824306  0.7818568194342885  0.956482737096013  1.0000
  H   H10       1.0  0.2086545216756055  0.5627884171948494  0.513006585736228  1.0000
  H   H11       1.0  0.0357719886298673  0.6329310968899426  0.2707282276841536  1.0000
  H   H12       1.0  0.03643912701204832  0.6326560932507967  0.8528202384410489  1.0000
  H   H13       1.0  0.29443634849413314  0.5279626012328076  0.06873188724248092  1.0000
  H   H14       1.0  0.3553512799647387  0.5032278598190387  0.7428574765060385  1.0000
  H   H15       1.0  0.8839635930546723  0.6945358372198562  0.16399725211260519  1.0000
  H   H16       1.0  0.8821405705835887  0.557671837040369  0.8932292995085679  1.0000
  H   H17       1.0  0.7746913051798996  0.6032430503758885  0.0028741356562274043  1.0000
  H   H18       1.0  0.930059290840905  0.8134116469040878  0.8751749412861178  1.0000
  H   H19       1.0  0.8219233777871467  0.8553259346985292  0.9850746548858974  1.0000
  Zn  Zn1       1.0  0.06509988995597515  0.5780846723690183  0.5656193776854889  1.0000
  Zn  Zn2       1.0  0.27672631522559543  0.5780915260738446  0.5655432855053649  1.0000
  C   C24       1.0  0.17079691567741473  0.5723758880450813  0.8028335996363944  1.0000
  C   C25       1.0  0.17103161291765567  0.5838021300519873  0.32832918881080103  1.0000
  C   C26       1.0  0.17272417428767683  0.841471484150891  0.5602016009011412  1.0000
  C   C27       1.0  0.16910427016643337  0.314704801356412  0.5709612581660224  1.0000
  O   O2        1.0  0.2513381884611383  0.5857334963676519  0.3766953948872893  1.0000
  O   O3        1.0  0.25110989286129404  0.5704486355746636  0.7544092682686737  1.0000
  O   O4        1.0  0.25266509547940563  0.7877467327578918  0.558482211857823  1.0000
  O   O5        1.0  0.24978291373265038  0.3684354094848601  0.5726223539199489  1.0000
  O   O6        1.0  0.09204321923122062  0.787740788957233  0.5585403092900381  1.0000
  O   O7        1.0  0.09048802853636917  0.570444424363001  0.754467295100054  1.0000
  O   O8        1.0  0.09071632437640201  0.5857292346893035  0.3767518600119282  1.0000
  O   O9        1.0  0.08916104954059034  0.368431137505306  0.5726789164419115  1.0000
