data_image0
_chemical_formula_structural       NC5NC3BrH3C9H8C6BrH4Zn2C4O8
_chemical_formula_sum              "N2 C27 Br2 H15 Zn2 O8"
_cell_length_a       13.839083392302014
_cell_length_b       9.275152443626249
_cell_length_c       9.27656775626242
_cell_angle_alpha    85.92079402595407
_cell_angle_beta     90.18696188566506
_cell_angle_gamma    90.59950914120974

_space_group_name_H-M_alt    "P 1"
_space_group_IT_number       1

loop_
  _space_group_symop_operation_xyz
  'x, y, z'

loop_
  _atom_site_type_symbol
  _atom_site_label
  _atom_site_symmetry_multiplicity
  _atom_site_fract_x
  _atom_site_fract_y
  _atom_site_fract_z
  _atom_site_occupancy
  N   N1        1.0  0.9169160595601566  0.5637901384420736  0.4052244523811168  1.0000
  C   C1        1.0  0.8444922497491558  0.5001464386753676  0.4079072513684756  1.0000
  C   C2        1.0  0.754258752311499  0.4209516698623476  0.4112454232435352  1.0000
  C   C3        1.0  0.6672065969359321  0.49715423434982764  0.4080335712270706  1.0000
  C   C4        1.0  0.5786653299985958  0.422424441652622  0.4111832875911672  1.0000
  C   C5        1.0  0.4894263158189072  0.500978479742547  0.40787216276994953  1.0000
  N   N2        1.0  0.41768975472200237  0.5641297660845774  0.4052100810253263  1.0000
  C   C6        1.0  0.5771083238880099  0.27118057158384956  0.41755803388204327  1.0000
  C   C7        1.0  0.6637146305740963  0.19485673443520168  0.4207749060747117  1.0000
  C   C8        1.0  0.7524471988853825  0.26887237885296256  0.41765531037126435  1.0000
  Br  Br1       1.0  0.869121438729306  0.15877829664792673  0.42229573161371503  1.0000
  H   H1        1.0  0.6683580539862971  0.6143554313821522  0.40309348303579573  1.0000
  H   H2        1.0  0.5090243008775119  0.21232597651802856  0.4200384162353552  1.0000
  H   H3        1.0  0.6618016250837641  0.07790474854567764  0.42570411296132926  1.0000
  C   C9        1.0  0.1644603412998913  0.14034013031047032  0.40668837282467574  1.0000
  C   C10       1.0  0.12932750185092723  0.2218563607948305  0.28428089918712063  1.0000
  C   C11       1.0  0.10317155647019781  0.15517547846002921  0.15958137629097302  1.0000
  C   C12       1.0  0.11173660555786835  0.005792701726044625  0.15482031024484266  1.0000
  C   C13       1.0  0.1449775683066512  0.9225769054219565  0.2761933278329587  1.0000
  C   C14       1.0  0.17015467796965789  0.9875688071100457  0.4037586495438379  1.0000
  C   C15       1.0  0.08526716134416623  0.9373599929757801  0.025686094071901706  1.0000
  C   C16       1.0  0.06310516480843043  0.8800301614180394  0.917556434778796  1.0000
  C   C17       1.0  0.03621595724721627  0.8104585502152855  0.7863600570168536  1.0000
  H   H4        1.0  0.3039532661758335  0.22490558875483585  0.6944417483496216  1.0000
  H   H5        1.0  0.12423639926070294  0.3383659535610113  0.2838278175763629  1.0000
  H   H6        1.0  0.07712699001703527  0.2204832651548838  0.06626445676325887  1.0000
  H   H7        1.0  0.14903692059607196  0.8062302459715575  0.2721737337657475  1.0000
  H   H8        1.0  0.26098039641430537  0.6942593851827843  0.6005724285986733  1.0000
  H   H9        1.0  0.053910885215832316  0.6938806080211405  0.7998203218516786  1.0000
  H   H10       1.0  0.9575246884415388  0.822794484397452  0.766636989647886  1.0000
  H   H11       1.0  0.07681338686653572  0.8619208147738897  0.6930938416104295  1.0000
  C   C18       1.0  0.1663572996926024  0.5598082110117173  0.9821111390329222  1.0000
  C   C19       1.0  0.08072314020832172  0.5944779198505077  0.052604346426149876  1.0000
  C   C20       1.0  0.9994627473527803  0.6410331942988363  0.9737445134492019  1.0000
  C   C21       1.0  0.0023106576314819724  0.6538617847474526  0.8232042363126015  1.0000
  C   C22       1.0  0.08603998049024608  0.6176324722321833  0.7509894094089749  1.0000
  C   C23       1.0  0.16825774438301622  0.5681007396934046  0.8283359380788808  1.0000
  Br  Br2       1.0  0.89109882923937  0.7187401126999973  0.7157325964649943  1.0000
  H   H12       1.0  0.29840719517085473  0.42887154344988293  0.27339460872897936  1.0000
  H   H13       1.0  0.9345025675076323  0.6684930368939763  0.029968657612937  1.0000
  H   H14       1.0  0.08593742845550566  0.625001158624777  0.6339134695799582  1.0000
  H   H15       1.0  0.3271488191336102  0.5533125905180836  0.5489881643223486  1.0000
  Zn  Zn1       1.0  0.061428526333653366  0.5638843615444968  0.40522864546972115  1.0000
  Zn  Zn2       1.0  0.2731772271748012  0.564023834999687  0.40521775330907994  1.0000
  C   C24       1.0  0.16785771086459556  0.5607863759944092  0.668401188336375  1.0000
  C   C25       1.0  0.16675036748418925  0.5671236436169662  0.14204534544797864  1.0000
  C   C26       1.0  0.16906045294882088  0.8273682570653071  0.39857082891551854  1.0000
  C   C27       1.0  0.16554754166862962  0.300540030086464  0.41187578768305433  1.0000
  O   O1        1.0  0.24723977075838977  0.5696254056405918  0.1957166143821718  1.0000
  O   O2        1.0  0.248080663751588  0.5583893787680079  0.6147212415013821  1.0000
  O   O3        1.0  0.24905081330199308  0.7736576330886038  0.39683131204339933  1.0000
  O   O4        1.0  0.2462695487792388  0.3543571605332101  0.41360643577518563  1.0000
  O   O5        1.0  0.0883361324697698  0.7735510359648747  0.39683996299974833  1.0000
  O   O6        1.0  0.08736599439125303  0.5582845140577839  0.6147298096396447  1.0000
  O   O7        1.0  0.08652509723411783  0.5695204736851058  0.19572345038743102  1.0000
  O   O8        1.0  0.0855548754242661  0.35425221931841033  0.4136133798415469  1.0000
