data_image0
_chemical_formula_structural       NC5NC3OH4C6NCH9C6OCH7Zn2C4O8
_chemical_formula_sum              "N3 C26 O10 H20 Zn2"
_cell_length_a       13.84702359539666
_cell_length_b       9.273386996610926
_cell_length_c       9.273891588657152
_cell_angle_alpha    85.97842517681073
_cell_angle_beta     89.66582561404928
_cell_angle_gamma    89.39943260271846

_space_group_name_H-M_alt    "P 1"
_space_group_IT_number       1

loop_
  _space_group_symop_operation_xyz
  'x, y, z'

loop_
  _atom_site_type_symbol
  _atom_site_label
  _atom_site_symmetry_multiplicity
  _atom_site_fract_x
  _atom_site_fract_y
  _atom_site_fract_z
  _atom_site_occupancy
  N   N1        1.0  0.904334836627569  0.5645427980695867  0.4071649146308771  1.0000
  C   C1        1.0  0.8320118246266491  0.5564393037310804  0.47023500818895325  1.0000
  C   C2        1.0  0.7419425913688179  0.5463487414418148  0.5487705637390997  1.0000
  C   C3        1.0  0.6545736885671389  0.5560968587816905  0.47289957971303725  1.0000
  C   C4        1.0  0.5664995486555232  0.5464619990865018  0.5478886503045308  1.0000
  C   C5        1.0  0.47687010561564463  0.5564984501762706  0.4697743589215106  1.0000
  N   N2        1.0  0.4048196449431479  0.5645669883767992  0.4069766960901995  1.0000
  C   C6        1.0  0.5657883205984047  0.5270499374302136  0.6989741171926838  1.0000
  C   C7        1.0  0.6527768043483695  0.5172927091436061  0.7749131437993966  1.0000
  C   C8        1.0  0.7411649967768734  0.5268654898214127  0.7004088319471744  1.0000
  O   O1        1.0  0.8278734742905096  0.5170916206496292  0.7764792823876472  1.0000
  H   H1        1.0  0.6551292662701858  0.5711357718783263  0.3558515601976895  1.0000
  H   H2        1.0  0.4980661642673901  0.5194667871612129  0.7579939667579958  1.0000
  H   H3        1.0  0.6514435287620439  0.5022836316669625  0.8917297161942355  1.0000
  H   H4        1.0  0.8290954007668956  0.5030445126843379  0.8858078859684982  1.0000
  C   C9        1.0  0.15754886759298414  0.14090743782985604  0.4077779587128069  1.0000
  C   C10       1.0  0.17500105390761633  0.22320745588333724  0.27744581618082753  1.0000
  C   C11       1.0  0.18336041025336836  0.15752847330785746  0.14710903772625605  1.0000
  C   C12       1.0  0.17439920637316297  0.00719722275960977  0.14377202403834244  1.0000
  C   C13       1.0  0.15865060681813237  0.923930285997038  0.27365080391272273  1.0000
  C   C14       1.0  0.15161484704630412  0.9881913333400586  0.4063761214790146  1.0000
  N   N3        1.0  0.18195240688303538  0.9364574866304242  0.010744682022862051  1.0000
  C   C15       1.0  0.1985748733600068  0.013085109663084135  0.8700822336083913  1.0000
  H   H5        1.0  0.1763794269525949  0.40518917275034494  0.6444109335782062  1.0000
  H   H6        1.0  0.17993345546551698  0.33983762488863434  0.2756756009257011  1.0000
  H   H7        1.0  0.19591130108287236  0.22524740976484867  0.04919728102959642  1.0000
  H   H8        1.0  0.15410096217914093  0.8075084711213352  0.2713786794042963  1.0000
  H   H9        1.0  0.18583786765371935  0.86000003015064  0.7574278461463526  1.0000
  H   H10       1.0  0.17511349745056154  0.8241170139877029  0.013736168492099802  1.0000
  H   H11       1.0  0.1388020067121829  0.09142972062966392  0.8450612341162311  1.0000
  H   H12       1.0  0.268473369090269  0.07064233468514858  0.8702885307029242  1.0000
  H   H13       1.0  0.20133370927230537  0.9348783846396808  0.7847504833564254  1.0000
  C   C16       1.0  0.156190695444564  0.5607286861632313  0.9838074204759238  1.0000
  C   C17       1.0  0.23485064756531404  0.6216671173021326  0.05225055504633036  1.0000
  C   C18       1.0  0.30795728337560146  0.6933779264557198  0.9722944802714246  1.0000
  C   C19       1.0  0.30266465225745764  0.704511812268863  0.8208374069629464  1.0000
  C   C20       1.0  0.2260397184967855  0.6426999498845751  0.7510527566630527  1.0000
  C   C21       1.0  0.15297301802899058  0.5683700495489461  0.8303466080910833  1.0000
  O   O2        1.0  0.38399231322764305  0.7525399870006289  0.04737445343842128  1.0000
  C   C22       1.0  0.46298587104038247  0.8284681674797245  0.9801425505679955  1.0000
  H   H14       1.0  0.9271050823259889  0.4721103402881605  0.09505766317029019  1.0000
  H   H15       1.0  0.35790984344944143  0.7596036845512393  0.755803199328116  1.0000
  H   H16       1.0  0.22520841701869765  0.6501351769807471  0.6339595716450166  1.0000
  H   H17       1.0  0.00024733449856162383  0.5029881191934038  0.5550697416185799  1.0000
  H   H18       1.0  0.43637907659434094  0.9260928950720535  0.9155951965410883  1.0000
  H   H19       1.0  0.5037541666574634  0.7568711487516102  0.9098332008003447  1.0000
  H   H20       1.0  0.5121791234910307  0.862953845909566  0.06491044766673992  1.0000
  Zn  Zn1       1.0  0.04876393497232612  0.5645459917871825  0.4071189163489244  1.0000
  Zn  Zn2       1.0  0.26039056049882503  0.5645520964853912  0.4070344771636414  1.0000
  C   C23       1.0  0.15361934039269134  0.5611784779330584  0.6703421032295311  1.0000
  C   C24       1.0  0.15553745274849254  0.5679214319602615  0.1438114278203242  1.0000
  C   C25       1.0  0.15275338048494508  0.8279848083048089  0.4008973136294578  1.0000
  C   C26       1.0  0.1564033522898847  0.3011133690022483  0.4132562971628114  1.0000
  O   O3        1.0  0.23562946409742658  0.5703314060115107  0.19747820052243115  1.0000
  O   O4        1.0  0.234147050310884  0.5587720451265439  0.6166108300200848  1.0000
  O   O5        1.0  0.23344668840374694  0.7742215446257408  0.3990322540015099  1.0000
  O   O6        1.0  0.23632975412923535  0.3548819158548288  0.41505666847960176  1.0000
  O   O7        1.0  0.0728246691241532  0.7742161724171639  0.3990967250541946  1.0000
  O   O8        1.0  0.07352501917988108  0.5587684055036483  0.6166752213515867  1.0000
  O   O9        1.0  0.07500743996960724  0.5703277004728284  0.19754085898658502  1.0000
  O   O10       1.0  0.07570772965898143  0.35487820097305023  0.4151194350263909  1.0000
