data_image0
_chemical_formula_structural       NC5OC5NC4H8C9H10C6OCH7Zn2C4O8
_chemical_formula_sum              "N2 C34 O10 H25 Zn2"
_cell_length_a       19.189071930511275
_cell_length_b       10.297183801781406
_cell_length_c       9.273891588657152
_cell_angle_alpha    86.04956984296379
_cell_angle_beta     89.6582401659116
_cell_angle_gamma    89.98878219536965

_space_group_name_H-M_alt    "P 1"
_space_group_IT_number       1

loop_
  _space_group_symop_operation_xyz
  'x, y, z'

loop_
  _atom_site_type_symbol
  _atom_site_label
  _atom_site_symmetry_multiplicity
  _atom_site_fract_x
  _atom_site_fract_y
  _atom_site_fract_z
  _atom_site_occupancy
  N   N1        1.0  0.6604773265197822  0.40859635609864514  0.40885652415254525  1.0000
  C   C1        1.0  0.6060742077195861  0.4545621604737389  0.3885316043788265  1.0000
  C   C2        1.0  0.5384037422257775  0.5117359587188794  0.3632504588714391  1.0000
  C   C3        1.0  0.5290096359230549  0.6077716486991658  0.25063935345399746  1.0000
  C   C4        1.0  0.463274708668412  0.663382877679324  0.2262213302350371  1.0000
  C   C5        1.0  0.4062791733258021  0.6228426246563781  0.31291025103686043  1.0000
  O   O1        1.0  0.3413799721900161  0.6820660098921637  0.2859765934318503  1.0000
  C   C6        1.0  0.27633983011092705  0.6226479293305351  0.31228413728944426  1.0000
  C   C7        1.0  0.21948507538049383  0.7005314303720536  0.34582976548585725  1.0000
  C   C8        1.0  0.1536183508743788  0.6452134265901993  0.37119178966170024  1.0000
  C   C9        1.0  0.14395086608571836  0.5112794562536374  0.3617810394900021  1.0000
  C   C10       1.0  0.07614465503807132  0.4543106390963429  0.3877218914993468  1.0000
  N   N2        1.0  0.0216324535492121  0.4085096935164744  0.40857766967350456  1.0000
  C   C11       1.0  0.20033812978162574  0.4330702954197256  0.3261074706101698  1.0000
  C   C12       1.0  0.266195862829446  0.48842814456005046  0.30079385708227274  1.0000
  C   C13       1.0  0.41615058095957863  0.5277244196094082  0.4273171297566923  1.0000
  C   C14       1.0  0.48187641136843956  0.47210963873640477  0.4518032781697378  1.0000
  H   H1        1.0  0.5724428085061686  0.6397345697456405  0.181930196717347  1.0000
  H   H2        1.0  0.45647308280998294  0.7377338532029272  0.1390904930524961  1.0000
  H   H3        1.0  0.2264982786187605  0.804194405288484  0.35307594839758405  1.0000
  H   H4        1.0  0.11029628503613112  0.7068155730093475  0.3979133006023148  1.0000
  H   H5        1.0  0.1933231201023664  0.32954631073261065  0.31711329062312366  1.0000
  H   H6        1.0  0.30881904147783273  0.4270039615879317  0.2702833655237884  1.0000
  H   H7        1.0  0.3734189708865184  0.4979615796395098  0.4987480061500952  1.0000
  H   H8        1.0  0.48868129492884094  0.39881663854699595  0.5401450116150668  1.0000
  C   C15       1.0  0.8410601239890907  0.02707914099956721  0.408921318742516  1.0000
  C   C16       1.0  0.8394376890363852  0.035706659037124  0.25724556760830297  1.0000
  C   C17       1.0  0.8386063069735433  0.9235103014694144  0.17953764495840757  1.0000
  C   C18       1.0  0.8394311107083074  0.8005307894227338  0.2566576950800932  1.0000
  C   C19       1.0  0.8410563246394801  0.7900170495112708  0.4085252933138417  1.0000
  C   C20       1.0  0.8418595606616984  0.9037592983843414  0.4836657486838329  1.0000
  C   C21       1.0  0.8368513361979114  0.9422737662841961  0.015489610201703025  1.0000
  C   C22       1.0  0.796262280841652  0.8429144002837231  0.9352829309591656  1.0000
  C   C23       1.0  0.8756674020650147  0.8431663486938206  0.9306427103158075  1.0000
  H   H9        1.0  0.8416919173169861  0.35129313397206174  0.46736684557023905  1.0000
  H   H10       1.0  0.8388114859717806  0.13045972230035452  0.19869035936753346  1.0000
  H   H11       1.0  0.8388206065223948  0.7124684977639347  0.19972855494807734  1.0000
  H   H12       1.0  0.8431109540105449  0.8963755442649538  0.6006867760356616  1.0000
  H   H13       1.0  0.8441166389510589  0.5629431075343307  0.6953604310719066  1.0000
  H   H14       1.0  0.8362878975289735  0.042560881490905984  0.9627616874639771  1.0000
  H   H15       1.0  0.7728310341548311  0.7598156823741021  0.0008965608883051447  1.0000
  H   H16       1.0  0.7719518641986702  0.882964290189757  0.8333213841076508  1.0000
  H   H17       1.0  0.9004705004210567  0.7602214817439484  0.9934384078411757  1.0000
  H   H18       1.0  0.897765787898536  0.8833611132194614  0.8259678287849125  1.0000
  C   C24       1.0  0.8421998732059107  0.40510738913250177  0.9854488931698503  1.0000
  C   C25       1.0  0.8992694111010048  0.4599623491689122  0.053950048602457557  1.0000
  C   C26       1.0  0.9523860116296269  0.5245184975226582  0.974065775432213  1.0000
  C   C27       1.0  0.9486230127833163  0.5345451489972908  0.8226228643661204  1.0000
  C   C28       1.0  0.8930175550366107  0.4789032672066277  0.75277878883793  1.0000
  C   C29       1.0  0.8399165475835051  0.41198875010408953  0.8319977254442059  1.0000
  O   O2        1.0  0.007552408833321644  0.5777744935796547  0.04920213826091357  1.0000
  C   C30       1.0  0.06493836840885048  0.6461268979707344  0.9820459722008511  1.0000
  H   H19       1.0  0.6764418495469715  0.3253606371866091  0.09663553296954541  1.0000
  H   H20       1.0  0.9887666945609893  0.5841406478714029  0.7576439848022197  1.0000
  H   H21       1.0  0.8924552222416791  0.48559849592304694  0.6356945718247009  1.0000
  H   H22       1.0  0.7293779713468667  0.3531486844052376  0.5566709826165654  1.0000
  H   H23       1.0  0.04623156946676011  0.734038826109121  0.9176192102555064  1.0000
  H   H24       1.0  0.09399567654602947  0.5816485474452817  0.9116443318605398  1.0000
  H   H25       1.0  0.10061086060335513  0.6771688647831802  0.0668458565203669  1.0000
  Zn  Zn1       1.0  0.764698881163426  0.4085679492662553  0.4087843720743309  1.0000
  Zn  Zn2       1.0  0.9174108845505037  0.4085276089800544  0.4086616123869591  1.0000
  C   C31       1.0  0.8403466278263192  0.4055129609787228  0.6719845750308739  1.0000
  C   C32       1.0  0.8417648051081704  0.41158423704793784  0.14546154871183753  1.0000
  C   C33       1.0  0.8410689381174  0.6457588520980293  0.4028563483160479  1.0000
  C   C34       1.0  0.8410424425076833  0.17133678583477424  0.41458985312533314  1.0000
  O   O3        1.0  0.8995722017285875  0.41373695014493395  0.19911667392535803  1.0000
  O   O4        1.0  0.8984441093854962  0.403328647172757  0.6182358636388393  1.0000
  O   O5        1.0  0.8990265987982642  0.5973302549650596  0.40091291636669996  1.0000
  O   O6        1.0  0.8989896604970089  0.2197353507806645  0.41643951316018957  1.0000
  O   O7        1.0  0.7831200531038292  0.5973602074807645  0.40100647133541  1.0000
  O   O8        1.0  0.782537563887376  0.4033601597974377  0.6183293409431887  1.0000
  O   O9        1.0  0.7836656609512063  0.413768403414241  0.19920841828292143  1.0000
  O   O10       1.0  0.7830831194253467  0.21976679563705706  0.4165313655893706  1.0000
