data_image0
_chemical_formula_structural       NC5NC3OH4C9H8C7F3H5Zn2C4O8
_chemical_formula_sum              "N2 C28 O9 H17 F3 Zn2"
_cell_length_a       13.84702359539666
_cell_length_b       9.275152443626249
_cell_length_c       10.299327507215196
_cell_angle_alpha    85.35552067985554
_cell_angle_beta     89.96690636176139
_cell_angle_gamma    90.5743638874884

_space_group_name_H-M_alt    "P 1"
_space_group_IT_number       1

loop_
  _space_group_symop_operation_xyz
  'x, y, z'

loop_
  _atom_site_type_symbol
  _atom_site_label
  _atom_site_symmetry_multiplicity
  _atom_site_fract_x
  _atom_site_fract_y
  _atom_site_fract_z
  _atom_site_occupancy
  N   N1        1.0  0.9203158928493753  0.5790619508869008  0.5622253588144497  1.0000
  C   C1        1.0  0.8480996508711409  0.5703808486207864  0.6190679987528624  1.0000
  C   C2        1.0  0.7581633687278283  0.5595710427580323  0.6898490624093154  1.0000
  C   C3        1.0  0.6706660243680795  0.5700140010224861  0.621469474324881  1.0000
  C   C4        1.0  0.5827188322993524  0.559692377136618  0.6890542279729273  1.0000
  C   C5        1.0  0.4929571514930258  0.5704442137816812  0.6186528334200556  1.0000
  N   N2        1.0  0.4208003826333143  0.579087864934988  0.5620557246998004  1.0000
  C   C6        1.0  0.582263373552729  0.5388966460027405  0.8252217252806968  1.0000
  C   C7        1.0  0.6693804089864747  0.5284439536631638  0.8936626381157022  1.0000
  C   C8        1.0  0.7576424770213032  0.5386990590085141  0.8265147784676665  1.0000
  O   O1        1.0  0.8444797320678662  0.5282285221669552  0.8950741381304425  1.0000
  H   H1        1.0  0.6710234556384835  0.5861248621658486  0.5159786138235857  1.0000
  H   H2        1.0  0.514641130023341  0.5307729807143028  0.8784140367812772  1.0000
  H   H3        1.0  0.668244889372101  0.5123650477716561  0.9989449041042069  1.0000
  H   H4        1.0  0.8458867367235461  0.5131801620369161  0.9936077871529574  1.0000
  C   C9        1.0  0.1677135810492834  0.15544225992983796  0.5634674172363949  1.0000
  C   C10       1.0  0.13290264207498836  0.2381968069511684  0.4531436194320895  1.0000
  C   C11       1.0  0.107069059452787  0.1727713901997059  0.340751020548127  1.0000
  C   C12       1.0  0.11564089227134278  0.02343055393787896  0.3364568432553723  1.0000
  C   C13       1.0  0.14856359618878637  0.9389879055864666  0.44584880243309505  1.0000
  C   C14       1.0  0.1734118472762467  0.0026964791941233046  0.560824861419541  1.0000
  C   C15       1.0  0.08950491880361211  0.9562975724566123  0.2200670296230189  1.0000
  C   C16       1.0  0.06762215057058585  0.9000560574429683  0.12260880865269573  1.0000
  C   C17       1.0  0.04107173730147641  0.8318049271912942  0.004360349584665136  1.0000
  H   H5        1.0  0.30641691939724414  0.23706104382997098  0.8227968858524256  1.0000
  H   H6        1.0  0.12781559658155484  0.3547140923577383  0.45273681737879135  1.0000
  H   H7        1.0  0.08126946596220284  0.23902274024895018  0.2566458187774685  1.0000
  H   H8        1.0  0.15263050783228496  0.8226786427224685  0.4422243782350212  1.0000
  H   H9        1.0  0.2637001618146195  0.7073745015326927  0.7381990638881134  1.0000
  H   H10       1.0  0.058723278781488635  0.7150821479679863  0.016487530736061688  1.0000
  H   H11       1.0  0.9624745189750233  0.8443861551368783  0.9866071387112494  1.0000
  H   H12       1.0  0.08187552120844835  0.8841684865792075  0.9202799925706051  1.0000
  C   C18       1.0  0.17065558479680235  0.5791279525157589  0.18076436004462468  1.0000
  C   C19       1.0  0.26489170901311376  0.6369761610133062  0.17528166380287868  1.0000
  C   C20       1.0  0.3117414057581782  0.668606843319044  0.05521221358950723  1.0000
  C   C21       1.0  0.2646478426964691  0.636823171182864  0.9400447655943628  1.0000
  C   C22       1.0  0.17046986684132828  0.5790107760880785  0.9435279644693786  1.0000
  C   C23       1.0  0.12388007939295176  0.551033241342977  0.0643585077396742  1.0000
  C   C24       1.0  0.41419675402866496  0.7258182664518797  0.050736854133221154  1.0000
  F   F1        1.0  0.43163225589959064  0.8100621874042797  0.15335955056534864  1.0000
  F   F2        1.0  0.4772129367148765  0.6108025020022909  0.058942922425815336  1.0000
  F   F3        1.0  0.4313668218499225  0.8100426008643298  0.9357162978848992  1.0000
  H   H13       1.0  0.9934598733728855  0.46754974422419754  0.3985242448112158  1.0000
  H   H14       1.0  0.30206314402073753  0.6572681899184678  0.26460235560439993  1.0000
  H   H15       1.0  0.3016519803378235  0.6570063794329126  0.8475892903295006  1.0000
  H   H16       1.0  0.051247046802712186  0.5064499701245926  0.06777933742839724  1.0000
  H   H17       1.0  0.13487736502647074  0.5544168740871336  0.6175851462064341  1.0000
  Zn  Zn1       1.0  0.06474487601700507  0.5790655660020176  0.5621839067612451  1.0000
  Zn  Zn2       1.0  0.2763712934360183  0.57907244424877  0.5621078127078802  1.0000
  C   C25       1.0  0.17046413846805875  0.5732858738446895  0.79936722477443  1.0000
  C   C26       1.0  0.1706543541497727  0.5848539566748274  0.32492461565739617  1.0000
  C   C27       1.0  0.17233103688105778  0.8425481635485589  0.5561490423587565  1.0000
  C   C28       1.0  0.16878737184975323  0.3155899337409467  0.5681428727457798  1.0000
  O   O2        1.0  0.2509650213154089  0.5867719726119964  0.37327725669390754  1.0000
  O   O3        1.0  0.25077301819311754  0.571371990098672  0.7509564596477658  1.0000
  O   O4        1.0  0.25227947931056405  0.7888046940782854  0.5545560522490023  1.0000
  O   O5        1.0  0.24945848807732118  0.3693392789647736  0.5696775667084937  1.0000
  O   O6        1.0  0.09165760915800393  0.788798731285239  0.5546141527797623  1.0000
  O   O7        1.0  0.09015115970988032  0.571367760534861  0.7510144855249472  1.0000
  O   O8        1.0  0.09034316293854494  0.586767693016828  0.37333372127443565  1.0000
  O   O9        1.0  0.08883662960340089  0.3693349890364386  0.5697341286923305  1.0000
