data_image0
_chemical_formula_structural       NC9NC3SH6C6SCNH4C8H6Zn2C4O8
_chemical_formula_sum              "N3 C31 S2 H16 Zn2 O8"
_cell_length_a       16.77567553997237
_cell_length_b       10.302215558581764
_cell_length_c       9.275144076552241
_cell_angle_alpha    85.96516146856106
_cell_angle_beta     90.85075607413872
_cell_angle_gamma    90.91242892959859

_space_group_name_H-M_alt    "P 1"
_space_group_IT_number       1

loop_
  _space_group_symop_operation_xyz
  'x, y, z'

loop_
  _atom_site_type_symbol
  _atom_site_label
  _atom_site_symmetry_multiplicity
  _atom_site_fract_x
  _atom_site_fract_y
  _atom_site_fract_z
  _atom_site_occupancy
  N   N1        1.0  0.7439786601745859  0.42937409661491716  0.41797787285877935  1.0000
  C   C1        1.0  0.6894466403981556  0.47898813019624426  0.4641664665631822  1.0000
  C   C2        1.0  0.6217715880150296  0.5405558624989381  0.5214829775849927  1.0000
  C   C3        1.0  0.6243965053096842  0.6293053434165614  0.6270159351342341  1.0000
  C   C4        1.0  0.5489250302260327  0.6729939713342044  0.6620055618647822  1.0000
  C   C5        1.0  0.48655991450915276  0.6184552179750877  0.5836098015705999  1.0000
  C   C6        1.0  0.400128842850674  0.6445915643643446  0.5956615678655841  1.0000
  C   C7        1.0  0.3430057141843762  0.5646046732223975  0.530942151702718  1.0000
  C   C8        1.0  0.2614186578882181  0.5887234647078418  0.541820536715997  1.0000
  C   C9        1.0  0.2036205495933922  0.5060586150340206  0.4755515844574654  1.0000
  N   N2        1.0  0.15716794022349928  0.43960792393678805  0.4222811379876701  1.0000
  C   C10       1.0  0.23612417827368692  0.6931414601537321  0.6172395839898102  1.0000
  C   C11       1.0  0.2921534093963302  0.77328381289814  0.6814466740791705  1.0000
  C   C12       1.0  0.37358435037340754  0.7495302961927077  0.6708953863528389  1.0000
  S   S1        1.0  0.5266213862899641  0.5156672913519449  0.4713507437890389  1.0000
  H   H1        1.0  0.6790330520350487  0.6614868314389095  0.6778271986550544  1.0000
  H   H2        1.0  0.5410388480706502  0.7414051073328758  0.7435902493114508  1.0000
  H   H3        1.0  0.3615250093460684  0.4829497023960665  0.4727023413740474  1.0000
  H   H4        1.0  0.173184446293492  0.7126537726655109  0.6262225745256607  1.0000
  H   H5        1.0  0.2724517535759  0.8543251215483172  0.7393339190597348  1.0000
  H   H6        1.0  0.4152608115708432  0.8144766057990409  0.7205951995686467  1.0000
  C   C13       1.0  0.950497748351478  0.053216688681029245  0.4200890517707001  1.0000
  C   C14       1.0  0.03060351835077913  0.051415736431168486  0.46627938506937205  1.0000
  C   C15       1.0  0.07046961647721406  0.9334817271357401  0.48972152112732226  1.0000
  C   C16       1.0  0.030811290866817456  0.8162464451204458  0.4664035990245961  1.0000
  C   C17       1.0  0.9506565079976883  0.8157556033631813  0.42018250023967896  1.0000
  C   C18       1.0  0.9109312062404017  0.9347714394986627  0.3973347674110228  1.0000
  S   S2        1.0  0.17281015699041213  0.9327001667139567  0.5480925984829932  1.0000
  C   C19       1.0  0.14732627750376603  0.9204033251460939  0.7325360239376895  1.0000
  N   N3        1.0  0.1305950766918864  0.9123414836539444  0.8534542127267679  1.0000
  H   H7        1.0  0.06233757366734127  0.14128805807039413  0.4844956633079409  1.0000
  H   H8        1.0  0.06268776589410763  0.7258410703946403  0.4847050935140255  1.0000
  H   H9        1.0  0.8491504578773125  0.9353108730889905  0.36173115613336604  1.0000
  H   H10       1.0  0.799598338637937  0.6076228294669  0.3329130261543416  1.0000
  C   C20       1.0  0.9486986093801101  0.43178277589230296  0.9968304098984825  1.0000
  C   C21       1.0  0.8967328873398798  0.5151701724808606  0.06227311867220786  1.0000
  C   C22       1.0  0.8511659877275009  0.6051490001006861  0.9788743543841038  1.0000
  C   C23       1.0  0.8567406599096928  0.6135839595798595  0.8285029337497218  1.0000
  C   C24       1.0  0.9070511672744895  0.5300603530982189  0.7612871419855249  1.0000
  C   C25       1.0  0.9524556739414868  0.4371895810792661  0.8434412245058671  1.0000
  C   C26       1.0  0.8100165143237167  0.7071032217060074  0.7427226322904561  1.0000
  C   C27       1.0  0.770899171592172  0.7854008664177984  0.6708882751012806  1.0000
  H   H11       1.0  0.11440866605555057  0.2654490173754274  0.11713976233831702  1.0000
  H   H12       1.0  0.8927443813317334  0.5128888022587931  0.17890143978267692  1.0000
  H   H13       1.0  0.8121174143179729  0.669100146815632  0.03191387777176202  1.0000
  H   H14       1.0  0.9093380415076472  0.5355120759217382  0.6442269981504047  1.0000
  H   H15       1.0  0.062299073548478086  0.3210320429382217  0.5747567503019377  1.0000
  H   H16       1.0  0.7365622646858468  0.8541294893983702  0.6078311456357692  1.0000
  Zn  Zn1       1.0  0.8632162001495803  0.43232394484712144  0.4192280349242277  1.0000
  Zn  Zn2       1.0  0.0379304456116838  0.43664755957784385  0.42104281250654174  1.0000
  C   C28       1.0  0.9517426508388758  0.4309951095167264  0.6834129632335917  1.0000
  C   C29       1.0  0.9494059037655156  0.4379780812392933  0.1568580456983797  1.0000
  C   C30       1.0  0.9505969249121944  0.6715827546273012  0.41442057524226944  1.0000
  C   C31       1.0  0.9505515700906633  0.19738887522803306  0.42585050973151906  1.0000
  O   O1        1.0  0.01594642266489377  0.44169240722795455  0.21125348008358658  1.0000
  O   O2        1.0  0.017806199587342416  0.4305613249371323  0.6303944879669168  1.0000
  O   O3        1.0  0.01688012426540043  0.624838878463702  0.41318122237954025  1.0000
  O   O4        1.0  0.016872437890989026  0.2474148608236964  0.4284666369705623  1.0000
  O   O5        1.0  0.8842741482488446  0.6215566421271972  0.4118042098333301  1.0000
  O   O6        1.0  0.8852002235508897  0.4272806480272405  0.6290173987520129  1.0000
  O   O7        1.0  0.8833404389809598  0.4384116740064177  0.20987465776669595  1.0000
  O   O8        1.0  0.8842664546814714  0.2441341190057758  0.4270879227271964  1.0000
