data_image0
_chemical_formula_structural       NC5NC3OH4C6NCH9C7ONH5Zn2C4O8
_chemical_formula_sum              "N4 C26 O10 H18 Zn2"
_cell_length_a       13.84702359539666
_cell_length_b       9.273386996610926
_cell_length_c       9.273042158839658
_cell_angle_alpha    86.06883900085258
_cell_angle_beta     90.0789287002439
_cell_angle_gamma    89.39943260271846

_space_group_name_H-M_alt    "P 1"
_space_group_IT_number       1

loop_
  _space_group_symop_operation_xyz
  'x, y, z'

loop_
  _atom_site_type_symbol
  _atom_site_label
  _atom_site_symmetry_multiplicity
  _atom_site_fract_x
  _atom_site_fract_y
  _atom_site_fract_z
  _atom_site_occupancy
  N   N1        1.0  0.8966603806691342  0.5621421403794749  0.4072110161283222  1.0000
  C   C1        1.0  0.8246412473683707  0.5541337027775435  0.47027928424584603  1.0000
  C   C2        1.0  0.7349504071204483  0.544161506154071  0.54881256673788  1.0000
  C   C3        1.0  0.6472159495097499  0.5537952737643783  0.4729437786491173  1.0000
  C   C4        1.0  0.5595031152504927  0.544273434613905  0.5479306788285709  1.0000
  C   C5        1.0  0.4694973088981465  0.5541921549504787  0.46981864831099607  1.0000
  N   N2        1.0  0.3971442821269255  0.5621660470111889  0.4070228030352623  1.0000
  C   C6        1.0  0.5595198337160511  0.5250890829643087  0.6990117728432672  1.0000
  C   C7        1.0  0.6468742001117292  0.5154463069583404  0.7749486015433213  1.0000
  C   C8        1.0  0.7349034225092016  0.5249067977005244  0.7004464460727442  1.0000
  O   O1        1.0  0.8219784158831459  0.5152475788861557  0.7765146948027521  1.0000
  H   H1        1.0  0.6472075768835732  0.5686577767412585  0.3558991468598569  1.0000
  H   H2        1.0  0.49208204156079016  0.5175948850652243  0.7580299141944216  1.0000
  H   H3        1.0  0.6461037597167515  0.5006132907735588  0.891761792910856  1.0000
  H   H4        1.0  0.8237270996873218  0.5013652466439416  0.8858401340809173  1.0000
  C   C9        1.0  0.14987736534887297  0.13850770409540303  0.4078240424668892  1.0000
  C   C10       1.0  0.16670159695744838  0.22061129072725594  0.2774956721439674  1.0000
  C   C11       1.0  0.1744329762607546  0.1547358697430703  0.14716266603263106  1.0000
  C   C12       1.0  0.1654556942787946  0.004399589780512468  0.1438257489280539  1.0000
  C   C13       1.0  0.15033286507829557  0.9213284011494021  0.27370076971507307  1.0000
  C   C14       1.0  0.14393659059504982  0.9857894868122807  0.4064222458065348  1.0000
  N   N3        1.0  0.1723679543128181  0.9334593601322313  0.010802257128910812  1.0000
  C   C15       1.0  0.18831269352519223  0.009874982317096048  0.8701438799140053  1.0000
  H   H5        1.0  0.1698480486049239  0.4031460828241945  0.6444501684534647  1.0000
  H   H6        1.0  0.17162546942207538  0.33723879173452564  0.27572550812426067  1.0000
  H   H7        1.0  0.18651211739596632  0.22230723749453407  0.0492537432003448  1.0000
  H   H8        1.0  0.14577227309162688  0.8049031618180077  0.27142871096884846  1.0000
  H   H9        1.0  0.17985101731527522  0.858127274820181  0.7574638099680324  1.0000
  H   H10       1.0  0.16554345819366856  0.8211233961389384  0.01379365701542113  1.0000
  H   H11       1.0  0.1284192729290008  0.08818188262838132  0.8451236046057575  1.0000
  H   H12       1.0  0.25821218321771755  0.06743251826193641  0.8703501710376721  1.0000
  H   H13       1.0  0.19066039160835782  0.9315396486735446  0.7848145994227207  1.0000
  C   C16       1.0  0.1464764561630405  0.557689960895789  0.9838657752283444  1.0000
  C   C17       1.0  0.057712493120868125  0.5668723771629709  0.05656474798555711  1.0000
  C   C18       1.0  0.9705946164194237  0.5900092003078601  0.9803030082765186  1.0000
  C   C19       1.0  0.9727883210037659  0.6022211123402925  0.8287832460902538  1.0000
  C   C20       1.0  0.05998617485569802  0.5909205119560899  0.7550789417754391  1.0000
  C   C21       1.0  0.14733754923079756  0.5666072098078194  0.8303805129933689  1.0000
  C   C22       1.0  0.8782417067295564  0.5999640489163585  0.06018126367561138  1.0000
  O   O2        1.0  0.872181395748157  0.5441359788522795  0.18764667936222063  1.0000
  N   N4        1.0  0.7955830955317192  0.6731496481472474  0.9965546086947107  1.0000
  H   H14       1.0  0.380394052599919  0.6128061946551852  0.0836465256794203  1.0000
  H   H15       1.0  0.9070163428391904  0.6164819296072417  0.7661612162795581  1.0000
  H   H16       1.0  0.3050526929680048  0.5970371498318647  0.5473489901441052  1.0000
  H   H17       1.0  0.7997970951753932  0.7354474428773454  0.898783959687032  1.0000
  H   H18       1.0  0.7303114052525403  0.6729841518181306  0.05282189133567994  1.0000
  Zn  Zn1       1.0  0.04108925738907133  0.5621452647702896  0.40716501917769965  1.0000
  Zn  Zn2       1.0  0.252715476078218  0.5621512422051171  0.4070805824363434  1.0000
  C   C23       1.0  0.14721290129407927  0.5591744704344671  0.6703805875777809  1.0000
  C   C24       1.0  0.14659413050591263  0.5651238583689773  0.1438651515695708  1.0000
  C   C25       1.0  0.14504872653031306  0.8255747043357448  0.40094359653035994  1.0000
  C   C26       1.0  0.14875824528753182  0.29872189200162147  0.4133022223570979  1.0000
  O   O3        1.0  0.2269447143130483  0.5676147168455972  0.1975303709918641  1.0000
  O   O4        1.0  0.22748172798347777  0.5566870559899816  0.6166508695149898  1.0000
  O   O5        1.0  0.22573304838514252  0.7718086297129825  0.39907859088291686  1.0000
  O   O6        1.0  0.228693321515403  0.35249315230224565  0.4151025415656605  1.0000
  O   O7        1.0  0.06511133973422512  0.7718033546726124  0.39914306006961286  1.0000
  O   O8        1.0  0.06686000709704598  0.5566835134151404  0.6167152589828104  1.0000
  O   O9        1.0  0.06632299208065318  0.56761110574326  0.19759302764249126  1.0000
  O   O10       1.0  0.06807159946132746  0.3524895320197103  0.4151653062957945  1.0000
