data_image0
_chemical_formula_structural       NC5NC3F3CH3C7NH5C6ClH5Zn2C4O8
_chemical_formula_sum              "N3 C26 F3 H13 Cl1 Zn2 O8"
_cell_length_a       13.85151926108384
_cell_length_b       9.275154477615127
_cell_length_c       10.302974078461048
_cell_angle_alpha    85.7869106659326
_cell_angle_beta     89.99987480856441
_cell_angle_gamma    89.43371178103573

_space_group_name_H-M_alt    "P 1"
_space_group_IT_number       1

loop_
  _space_group_symop_operation_xyz
  'x, y, z'

loop_
  _atom_site_type_symbol
  _atom_site_label
  _atom_site_symmetry_multiplicity
  _atom_site_fract_x
  _atom_site_fract_y
  _atom_site_fract_z
  _atom_site_occupancy
  N   N1        1.0  0.898641771061417  0.5778879162502114  0.5736008593295117  1.0000
  C   C1        1.0  0.8263722420284264  0.5688102885860329  0.6298250316031648  1.0000
  C   C2        1.0  0.7364632671826042  0.5575164749084685  0.6997759453731203  1.0000
  C   C3        1.0  0.6488763055657585  0.5667355685673093  0.6317923434510937  1.0000
  C   C4        1.0  0.5614112777657361  0.557516461766167  0.6997759272617695  1.0000
  C   C5        1.0  0.47135298980215606  0.5688103047316122  0.6298251163767132  1.0000
  N   N2        1.0  0.3989635856986884  0.5778878783710137  0.5736009541636649  1.0000
  C   C6        1.0  0.5615305516871543  0.5380805426718833  0.8358980939931098  1.0000
  C   C7        1.0  0.6491476908057863  0.5256724524691703  0.9050069434845172  1.0000
  C   C8        1.0  0.6492505549666654  0.5100992323957096  0.051765900744733195  1.0000
  F   F1        1.0  0.7306798934942919  0.4353034784664245  0.09797064020613855  1.0000
  F   F2        1.0  0.5688110790358887  0.43530344787469094  0.09797072952217778  1.0000
  F   F3        1.0  0.6483518648051247  0.6458789853638607  0.09882875179962036  1.0000
  C   C9        1.0  0.7366008791582841  0.5380804474426184  0.8358981113196741  1.0000
  H   H1        1.0  0.6487758151800269  0.5819437061259622  0.5264023061267924  1.0000
  H   H2        1.0  0.4934414813992128  0.5329038341645007  0.8878002983448064  1.0000
  H   H3        1.0  0.8047582354537507  0.5329037532860016  0.8878002610949799  1.0000
  C   C10       1.0  0.151600963694152  0.15449861686910382  0.5720985719308133  1.0000
  C   C11       1.0  0.12510163638928096  0.23767770526611012  0.45763212662629726  1.0000
  C   C12       1.0  0.09074973797113128  0.17163928384793636  0.34922913861053106  1.0000
  C   C13       1.0  0.08233154724131864  0.021518758966089006  0.3540159156425777  1.0000
  C   C14       1.0  0.10972564486429492  0.9371319956075749  0.46587318964049396  1.0000
  C   C15       1.0  0.1460136974141597  0.0012661349051597043  0.5751144239074641  1.0000
  C   C16       1.0  0.06296601841818639  0.2584001846102391  0.23338307404673952  1.0000
  N   N3        1.0  0.04063561461868814  0.3281400427819237  0.14027251184010048  1.0000
  H   H4        1.0  0.17031992920727462  0.23116966490699897  0.8907713926867726  1.0000
  H   H5        1.0  0.12904430049678428  0.3546371056636275  0.45378006215889566  1.0000
  H   H6        1.0  0.05541554521024649  0.9693921859618178  0.27070141104979406  1.0000
  H   H7        1.0  0.1046561929331036  0.8206643995985008  0.4657589361768283  1.0000
  H   H8        1.0  0.16271447474916378  0.7024958831293932  0.7886342787957024  1.0000
  C   C17       1.0  0.14880733639895793  0.5778823841110392  0.19236398504553162  1.0000
  C   C18       1.0  0.13300235074525424  0.4281348168941738  0.20106431741838837  1.0000
  C   C19       1.0  0.12516039749260813  0.35383415271863355  0.0884243938279472  1.0000
  C   C20       1.0  0.13300239338572628  0.4281348983195646  0.9659564187372878  1.0000
  C   C21       1.0  0.14880733442751426  0.5778823096878378  0.9548490038538882  1.0000
  C   C22       1.0  0.15663280216586117  0.6520261680057504  0.06870285154276057  1.0000
  Cl  Cl1       1.0  0.10541621882844023  0.16676386642110352  0.10079671861679196  1.0000
  H   H9        1.0  0.15476135836620264  0.6342897080412077  0.5163896590967972  1.0000
  H   H10       1.0  0.126716352003472  0.3685767125014616  0.2950498724891102  1.0000
  H   H11       1.0  0.1267164196011941  0.36857669192843195  0.8798489063419384  1.0000
  H   H12       1.0  0.16882203817485175  0.7675159864671921  0.06106456904939627  1.0000
  H   H13       1.0  0.15476117474673412  0.6342896952824504  0.6233620285699604  1.0000
  Zn  Zn1       1.0  0.043023864794490274  0.5778840563100742  0.5736083560404004  1.0000
  Zn  Zn2       1.0  0.254581552105938  0.5778799783722988  0.5736040009366303  1.0000
  C   C23       1.0  0.14884306672562359  0.572138621453073  0.8107025252008778  1.0000
  C   C24       1.0  0.14876464837465772  0.5836272323523781  0.33650996563186464  1.0000
  C   C25       1.0  0.1470648363943523  0.841209030393504  0.569370875483072  1.0000
  C   C26       1.0  0.15054281794588498  0.31455509119192593  0.5778416783974258  1.0000
  O   O1        1.0  0.22903540317999282  0.5855474183360323  0.3848849983650064  1.0000
  O   O2        1.0  0.2291397086548559  0.5702142527377504  0.7623238094488329  1.0000
  O   O3        1.0  0.2277026828927938  0.7874920108376985  0.5674468002018063  1.0000
  O   O4        1.0  0.23047235668369448  0.36826967055132753  0.5797619103078635  1.0000
  O   O5        1.0  0.06713298802246737  0.7874943641340065  0.56745044666383  1.0000
  O   O6        1.0  0.06857000235030711  0.5702183382570409  0.7623273928577645  1.0000
  O   O7        1.0  0.06846569727120388  0.5855514536130001  0.3848870207119055  1.0000
  O   O8        1.0  0.06990265083899955  0.36827369551601313  0.5797640299535953  1.0000
