data_image0
_chemical_formula_structural       NC5NC3F3CH3C6NH7C7F3H5Zn2C4O8
_chemical_formula_sum              "N3 C26 F6 H15 Zn2 O8"
_cell_length_a       13.85151926108384
_cell_length_b       9.274771166103582
_cell_length_c       10.299327507215196
_cell_angle_alpha    85.44807283694688
_cell_angle_beta     89.98119703014584
_cell_angle_gamma    90.59705350001695

_space_group_name_H-M_alt    "P 1"
_space_group_IT_number       1

loop_
  _space_group_symop_operation_xyz
  'x, y, z'

loop_
  _atom_site_type_symbol
  _atom_site_label
  _atom_site_symmetry_multiplicity
  _atom_site_fract_x
  _atom_site_fract_y
  _atom_site_fract_z
  _atom_site_occupancy
  N   N1        1.0  0.9204485835107196  0.5788807218590581  0.5648410546507396  1.0000
  C   C1        1.0  0.8480419045512397  0.5697900055238074  0.6211331529024631  1.0000
  C   C2        1.0  0.7579622963076301  0.5584799076933284  0.6911685760258126  1.0000
  C   C3        1.0  0.6705172725770077  0.5677139659929584  0.6231120162762567  1.0000
  C   C4        1.0  0.5829103067164361  0.5584798945473656  0.6911685579764736  1.0000
  C   C5        1.0  0.49302265252390404  0.5697900216642793  0.6211332376226555  1.0000
  N   N2        1.0  0.42077039760973395  0.5788806839467191  0.5648411497173038  1.0000
  C   C6        1.0  0.5827320978852824  0.5390135331583651  0.8274419066620269  1.0000
  C   C7        1.0  0.6701636544333253  0.5265887418193003  0.8966407763540797  1.0000
  C   C8        1.0  0.6700189782930581  0.5109853392682313  0.04353462953920118  1.0000
  F   F1        1.0  0.7504198348971449  0.4361458131594526  0.09014678874106996  1.0000
  F   F2        1.0  0.5885510200009384  0.4361457825389977  0.0901468782494539  1.0000
  F   F3        1.0  0.6709554424156603  0.6468244372440879  0.0899056791988524  1.0000
  C   C9        1.0  0.7578024240570662  0.5390134378797455  0.8274419244921627  1.0000
  H   H1        1.0  0.6706492819351553  0.5829457514972096  0.5176040924452276  1.0000
  H   H2        1.0  0.5145599831261101  0.5338263126576955  0.8793900901958175  1.0000
  H   H3        1.0  0.8258767360897655  0.5338262317452629  0.8793900533547044  1.0000
  C   C10       1.0  0.16765001074544886  0.1552840577641765  0.5655489749892374  1.0000
  C   C11       1.0  0.14546298476404187  0.23861064982951863  0.44940851134210225  1.0000
  C   C12       1.0  0.132289830752214  0.17357921784294228  0.3325311877020314  1.0000
  C   C13       1.0  0.14135452116364733  0.023843850826676043  0.33094777434925887  1.0000
  C   C14       1.0  0.16175672384575895  0.9391980757672552  0.4454928074460418  1.0000
  C   C15       1.0  0.17357813085994067  0.002466312220227519  0.5641444616184305  1.0000
  N   N3        1.0  0.11069625948561718  0.2600055039565139  0.2151142731451532  1.0000
  H   H4        1.0  0.27622979634598965  0.23490071128416168  0.8497804256909663  1.0000
  H   H5        1.0  0.14059537606966477  0.35520343459711734  0.44890963076699286  1.0000
  H   H6        1.0  0.13167603372251582  0.9723704417063607  0.24102246563627697  1.0000
  H   H7        1.0  0.16601220801907934  0.8230346317488897  0.4417732976780986  1.0000
  H   H8        1.0  0.2427976105062105  0.7053702941480532  0.7575224847963626  1.0000
  H   H9        1.0  0.1040446952405951  0.3720794117364913  0.21507208988225535  1.0000
  H   H10       1.0  0.10110813714226663  0.21254897447920285  0.12732479749518366  1.0000
  C   C16       1.0  0.17070692387791958  0.5789337565961978  0.1834650259169084  1.0000
  C   C17       1.0  0.2649282376724727  0.6367721923955927  0.17809867310899577  1.0000
  C   C18       1.0  0.31177135660523025  0.6683977732855249  0.058091252226234465  1.0000
  C   C19       1.0  0.26468440878312793  0.6366192281333819  0.9428614690261458  1.0000
  C   C20       1.0  0.17052123424330268  0.5788165996965111  0.9462283964294228  1.0000
  C   C21       1.0  0.12393893915613698  0.5508438438746586  0.0670023280265093  1.0000
  C   C22       1.0  0.4142090487609309  0.7255990520393103  0.053734093803220036  1.0000
  F   F4        1.0  0.43166192169926376  0.8098349437076727  0.15648560405467696  1.0000
  F   F5        1.0  0.47717329541689724  0.6105897546224524  0.0617937314340158  1.0000
  F   F6        1.0  0.4313965685691023  0.8098153725674516  0.938842232808375  1.0000
  H   H11       1.0  0.9935382942168614  0.46737416148220623  0.4010020549610019  1.0000
  H   H12       1.0  0.3020931398696216  0.65706058016227  0.26746157113396274  1.0000
  H   H13       1.0  0.3016820382325536  0.656798813112364  0.8504479845078525  1.0000
  H   H14       1.0  0.05131732275874845  0.5062681047176216  0.07033349055078753  1.0000
  H   H15       1.0  0.1349335755909511  0.5542266209992918  0.6202376312973606  1.0000
  Zn  Zn1       1.0  0.06483062292244712  0.5788768588745994  0.5648485742534959  1.0000
  Zn  Zn2       1.0  0.2763882558342721  0.5788727796064126  0.5648442388529799  1.0000
  C   C23       1.0  0.17051394213864834  0.5730921820443113  0.8020593027916281  1.0000
  C   C24       1.0  0.1707072595255551  0.5846592764311636  0.3276336347207527  1.0000
  C   C25       1.0  0.1724538691014772  0.8423315970110413  0.5592345772908979  1.0000
  C   C26       1.0  0.16876724822898423  0.31541812838538735  0.5704584323371611  1.0000
  O   O1        1.0  0.25099234728462005  0.5865729720395225  0.3760163020032228  1.0000
  O   O2        1.0  0.2507961951256359  0.5711743022192382  0.753672972986064  1.0000
  O   O3        1.0  0.2523616280725778  0.7885885346154111  0.5575902866545435  1.0000
  O   O4        1.0  0.24942684224330466  0.36915874997859954  0.5720988909411877  1.0000
  O   O5        1.0  0.09179196431918961  0.7885908885053756  0.5575939221599335  1.0000
  O   O6        1.0  0.09022654351176507  0.5711783891912126  0.753676536370421  1.0000
  O   O7        1.0  0.09042269576340646  0.5865770089843662  0.37601830401797254  1.0000
  O   O8        1.0  0.08885719062223951  0.36916277659115593  0.5721009903441387  1.0000
