data_image0
_chemical_formula_structural       NC9NC3OH6C6NCH9C6BrH5Zn2C4O8
_chemical_formula_sum              "N3 C29 O9 H20 Br1 Zn2"
_cell_length_a       15.78231758774541
_cell_length_b       9.273386996610926
_cell_length_c       10.302972455390005
_cell_angle_alpha    85.46621647305027
_cell_angle_beta     90.08385913268748
_cell_angle_gamma    89.03191128213776

_space_group_name_H-M_alt    "P 1"
_space_group_IT_number       1

loop_
  _space_group_symop_operation_xyz
  'x, y, z'

loop_
  _atom_site_type_symbol
  _atom_site_label
  _atom_site_symmetry_multiplicity
  _atom_site_fract_x
  _atom_site_fract_y
  _atom_site_fract_z
  _atom_site_occupancy
  N   N1        1.0  0.7882017046784665  0.5700785742288346  0.5680196693976556  1.0000
  C   C1        1.0  0.7402313518055542  0.47890983862166564  0.5922290550949891  1.0000
  C   C2        1.0  0.6806742114805184  0.3657472771689746  0.6222791376160193  1.0000
  C   C3        1.0  0.7012125793388503  0.22359686412913526  0.6599475004996636  1.0000
  C   C4        1.0  0.6249064370764347  0.15470520936349708  0.6782775900252329  1.0000
  C   C5        1.0  0.5624776066089865  0.25991278398430695  0.6504399568924353  1.0000
  C   C6        1.0  0.4695064636231815  0.2404615113919033  0.6556784454704994  1.0000
  C   C7        1.0  0.41502657080607447  0.3597274840998133  0.6239560222111651  1.0000
  C   C8        1.0  0.32691834971851297  0.3437779069073239  0.6282586155697698  1.0000
  C   C9        1.0  0.27172058036678354  0.4665139849598299  0.5956049682663853  1.0000
  N   N2        1.0  0.2273545661294875  0.5651779566064861  0.5693543616152892  1.0000
  C   C10       1.0  0.29260982786208073  0.20838484633812307  0.6643328777789035  1.0000
  C   C11       1.0  0.34615726905414  0.08936545267654906  0.6959940714647828  1.0000
  C   C12       1.0  0.43408252737747044  0.10487686939952477  0.6918084057759715  1.0000
  O   O1        1.0  0.598167854096786  0.38459743551275266  0.6173513165031952  1.0000
  H   H1        1.0  0.763968330538218  0.17565864527486497  0.6725997910456039  1.0000
  H   H2        1.0  0.6168721780385112  0.04142925777565432  0.7083097397512292  1.0000
  H   H3        1.0  0.4409829218611722  0.4650872923831646  0.595879129698681  1.0000
  H   H4        1.0  0.2245767620713472  0.1948763832990188  0.6679748288893654  1.0000
  H   H5        1.0  0.3194661645959158  0.9847259387218898  0.7238794392232368  1.0000
  H   H6        1.0  0.47374976351239856  0.010605127875242822  0.7168945480161086  1.0000
  C   C13       1.0  0.010387962411496204  0.14394516416823522  0.5693329028645873  1.0000
  C   C14       1.0  0.025266802961134913  0.22725472925512696  0.4519925929782598  1.0000
  C   C15       1.0  0.032167068315526855  0.1626748403173357  0.3346207782896242  1.0000
  C   C16       1.0  0.024292874989809022  0.012462045541498766  0.3315881298943797  1.0000
  C   C17       1.0  0.010907345078969628  0.9281729019172952  0.44852520722962447  1.0000
  C   C18       1.0  0.005176444033872847  0.9913001770756174  0.5680524049595872  1.0000
  N   N3        1.0  0.030476800279977317  0.9428537257712201  0.2117904479154904  1.0000
  C   C19       1.0  0.044593144071848306  0.020592697471575105  0.08514293143291018  1.0000
  H   H7        1.0  0.027700178778759608  0.40589669014251917  0.7825295456942638  1.0000
  H   H8        1.0  0.029588865048171487  0.34385239184818284  0.4504129494215774  1.0000
  H   H9        1.0  0.04285336643044513  0.23115770952675183  0.24646742620922057  1.0000
  H   H10       1.0  0.006907653269079277  0.811816465761614  0.44646498503409004  1.0000
  H   H11       1.0  0.03637648355381071  0.8595900537986346  0.8843545639139647  1.0000
  H   H12       1.0  0.0244859343237289  0.8305534564504585  0.21446438470249451  1.0000
  H   H13       1.0  0.9920616227572695  0.099752469577151  0.06242636597769957  1.0000
  H   H14       1.0  0.10592669827611528  0.0774600120516371  0.08553883214680069  1.0000
  H   H15       1.0  0.04672930045324873  0.9431322668172584  0.008291211689656523  1.0000
  C   C20       1.0  0.007782185677991601  0.5676226692932189  0.18745008985534506  1.0000
  C   C21       1.0  0.0333856816510405  0.42136883077365134  0.19669683537099503  1.0000
  C   C22       1.0  0.04608644434863793  0.34881902987457303  0.08434588531786291  1.0000
  C   C23       1.0  0.03338582481844688  0.42136877286701147  0.9616144452888329  1.0000
  C   C24       1.0  0.007782225745856188  0.5676226727941871  0.9499351720457222  1.0000
  C   C25       1.0  0.995104074389406  0.6400432974621881  0.06351166112416107  1.0000
  Br  Br1       1.0  0.08091143638910703  0.14988853219652576  0.09857744467216434  1.0000
  H   H16       1.0  0.9981456099095674  0.6226714912609022  0.5112712470799852  1.0000
  H   H17       1.0  0.04357783848291552  0.36314785540539596  0.29086126828104475  1.0000
  H   H18       1.0  0.04357817302065681  0.3631479000023993  0.8757803665962953  1.0000
  H   H19       1.0  0.9753576328194608  0.7528398665197031  0.055442159575356476  1.0000
  H   H20       1.0  0.9981444223196126  0.622670962808274  0.6182376202925797  1.0000
  Zn  Zn1       1.0  0.9149317543272435  0.5686605079711144  0.5684123295483166  1.0000
  Zn  Zn2       1.0  0.10062456041195285  0.566584247347673  0.5689723320612856  1.0000
  C   C26       1.0  0.007815686933993815  0.5618749912462109  0.8058178610454397  1.0000
  C   C27       1.0  0.007742644368661679  0.5733715618297375  0.331566931352554  1.0000
  C   C28       1.0  0.006157184124607313  0.8311321051294598  0.5631209552535337  1.0000
  C   C29       1.0  0.009401094475177453  0.30411271523164896  0.5742639087886088  1.0000
  O   O2        1.0  0.07819886481937871  0.5745067182214896  0.38014638742988005  1.0000
  O   O3        1.0  0.07829601635665195  0.5591629126566953  0.7576630618405469  1.0000
  O   O4        1.0  0.07695580440161251  0.7765914479600944  0.5616835881607467  1.0000
  O   O5        1.0  0.07953901334655783  0.3570781939475778  0.5761257635605892  1.0000
  O   O6        1.0  0.9360172380247872  0.7781665620813061  0.5612588978510806  1.0000
  O   O7        1.0  0.9373574393148457  0.560739760202843  0.7572382996887992  1.0000
  O   O8        1.0  0.9372602881430447  0.5760835154897008  0.37972006447095374  1.0000
  O   O9        1.0  0.9386004367302325  0.358654980896399  0.5756995379528214  1.0000
