data_image0
_chemical_formula_structural       NC9NC3OH6C7NC2NH8C7NC2NH7Zn2C4O8
_chemical_formula_sum              "N6 C34 O9 H21 Zn2"
_cell_length_a       15.78231758774541
_cell_length_b       9.273995741505848
_cell_length_c       9.27399911348925
_cell_angle_alpha    85.20991922917831
_cell_angle_beta     89.74395178918073
_cell_angle_gamma    90.21461439936415

_space_group_name_H-M_alt    "P 1"
_space_group_IT_number       1

loop_
  _space_group_symop_operation_xyz
  'x, y, z'

loop_
  _atom_site_type_symbol
  _atom_site_label
  _atom_site_symmetry_multiplicity
  _atom_site_fract_x
  _atom_site_fract_y
  _atom_site_fract_z
  _atom_site_occupancy
  N   N1        1.0  0.812804309370192  0.5829979662162272  0.41462983837158274  1.0000
  C   C1        1.0  0.7636350095030111  0.4916470795013921  0.4411608366370103  1.0000
  C   C2        1.0  0.7025896831630891  0.37825842087279604  0.4740926438056881  1.0000
  C   C3        1.0  0.721258958852437  0.23582475839026354  0.515372048068583  1.0000
  C   C4        1.0  0.6440466909975949  0.1667951116195705  0.5354605161183466  1.0000
  C   C5        1.0  0.5830010418735334  0.27221192554529416  0.5049549096198991  1.0000
  C   C6        1.0  0.48977381238840006  0.2527210837134175  0.5106969149416385  1.0000
  C   C7        1.0  0.4368625717562603  0.37222584534194425  0.47593157728322755  1.0000
  C   C8        1.0  0.34854433798945483  0.3562437533344658  0.4806478420687805  1.0000
  C   C9        1.0  0.294960893689748  0.4792256474424715  0.4448618241609501  1.0000
  N   N2        1.0  0.2518925935327079  0.578087235887536  0.4160930518709143  1.0000
  C   C10       1.0  0.31245480863633507  0.22057901405029948  0.5201834459942707  1.0000
  C   C11       1.0  0.3644368238178126  0.10132128318056033  0.5548817495773162  1.0000
  C   C12       1.0  0.4525663303889628  0.11686433373803241  0.5502936346230041  1.0000
  O   O1        1.0  0.6203309186299155  0.3971454917838939  0.4686934889224654  1.0000
  H   H1        1.0  0.783384583167824  0.18779150755614893  0.5292364319801506  1.0000
  H   H2        1.0  0.6345229419462762  0.05329329931474837  0.5683719103329647  1.0000
  H   H3        1.0  0.46420488083189176  0.47779711332669295  0.44516061982074406  1.0000
  H   H4        1.0  0.24424388128687333  0.20704303310184605  0.5241755182382002  1.0000
  H   H5        1.0  0.3363692348175531  0.9964717510917813  0.585442811570416  1.0000
  H   H6        1.0  0.49099360674944564  0.022403732879569208  0.5777863032052852  1.0000
  C   C13       1.0  0.029822301255281177  0.15709104436706722  0.4142986659283754  1.0000
  C   C14       1.0  0.045157141314079885  0.24129053805968795  0.2838245263895831  1.0000
  C   C15       1.0  0.06805423110964365  0.1770077345298593  0.15878914226693008  1.0000
  C   C16       1.0  0.07656582726132338  0.02645047301975923  0.16065732457266524  1.0000
  C   C17       1.0  0.059456071998937876  0.9410036277234237  0.28992991552157243  1.0000
  C   C18       1.0  0.034882577034440754  0.00398283110879194  0.41643665695380605  1.0000
  C   C19       1.0  0.10187087356388846  0.9603361434646274  0.02661955846019559  1.0000
  N   N3        1.0  0.10541830414084957  0.03572120609935217  0.8954820185111382  1.0000
  C   C20       1.0  0.1311510115779818  0.9383350984766743  0.8047940665754729  1.0000
  C   C21       1.0  0.14297094096865826  0.8066223330469133  0.8814542372296684  1.0000
  N   N4        1.0  0.12459315969704948  0.8206134895733258  0.020942955386046288  1.0000
  H   H7        1.0  0.9603832021084384  0.42066345563437807  0.6217893633018345  1.0000
  H   H8        1.0  0.04148694513862039  0.35821593364469617  0.27915722869113724  1.0000
  H   H9        1.0  0.08035672454273879  0.24592247783670176  0.06078403651929599  1.0000
  H   H10       1.0  0.062317990458606615  0.8243921291039622  0.2919396091378277  1.0000
  H   H11       1.0  0.03514735466103077  0.70386245504186  0.6564537871510949  1.0000
  H   H12       1.0  0.14092939521860748  0.962247781892351  0.6897545482516496  1.0000
  H   H13       1.0  0.16393007734103926  0.7076484111511  0.8387380285883865  1.0000
  H   H14       1.0  0.12890123435496947  0.7392911046459768  0.10532362440985188  1.0000
  C   C22       1.0  0.033837761269826405  0.5842111265433365  0.9915304815275721  1.0000
  C   C23       1.0  0.09993346784768331  0.5144188977383697  0.07006232191430217  1.0000
  C   C24       1.0  0.16035947306647824  0.43442352315187965  0.001412862825393992  1.0000
  C   C25       1.0  0.1563102093210078  0.4214636140376533  0.8520704035499329  1.0000
  C   C26       1.0  0.0915041802818739  0.4936767491273768  0.7719903160282975  1.0000
  C   C27       1.0  0.030867114991654402  0.5768628051734496  0.839204826680727  1.0000
  C   C28       1.0  0.22081697718577284  0.33449470201632464  0.7813738073481007  1.0000
  N   N5        1.0  0.2914653506341236  0.2833176079320192  0.849521858201475  1.0000
  C   C29       1.0  0.33204917928316924  0.21070756996886342  0.7501533866024386  1.0000
  C   C30       1.0  0.2858123612795038  0.2184116607565714  0.6244752312930806  1.0000
  N   N6        1.0  0.2158548745586667  0.29619711074335475  0.6442680221944221  1.0000
  H   H15       1.0  0.9447372116693254  0.7672292010379871  0.25826661529559214  1.0000
  H   H16       1.0  0.10379707741973476  0.518667101782655  0.18623709649507014  1.0000
  H   H17       1.0  0.20972838647128167  0.3807462914104441  0.06617205298954354  1.0000
  H   H18       1.0  0.08938509452165122  0.4897984966314878  0.6558684860657036  1.0000
  H   H19       1.0  0.8991601207841824  0.6597268754694963  0.553207631046853  1.0000
  H   H20       1.0  0.39165599187102806  0.15515474658597547  0.7685830003095466  1.0000
  H   H21       1.0  0.16805396548445817  0.31859003139791914  0.5684580732830149  1.0000
  Zn  Zn1       1.0  0.9395156475057737  0.5815769115632272  0.4150604083764009  1.0000
  Zn  Zn2       1.0  0.1251811152353838  0.5794964191814598  0.4156742506800945  1.0000
  C   C31       1.0  0.03139241536367221  0.5725072396606308  0.6789617505197161  1.0000
  C   C32       1.0  0.03330638521350249  0.5885678865718684  0.15177306149396275  1.0000
  C   C33       1.0  0.033941870823779946  0.8439522056324397  0.4102810739854952  1.0000
  C   C34       1.0  0.03075685577734453  0.3171211881671512  0.420453810393872  1.0000
  O   O2        1.0  0.10358709036545188  0.5892342280871278  0.2057848692381472  1.0000
  O   O3        1.0  0.10202749916811732  0.5702607683376197  0.6254154166578232  1.0000
  O   O4        1.0  0.10408526161300696  0.7894560088835487  0.408453870040967  1.0000
  O   O5        1.0  0.10152926500639653  0.37003899950461183  0.4227463074535174  1.0000
  O   O6        1.0  0.9631674343762852  0.7910343319516806  0.4079883513859157  1.0000
  O   O7        1.0  0.961109682548969  0.5718408245502649  0.6249498254200216  1.0000
  O   O8        1.0  0.9626692795836146  0.5908142490921169  0.20531754259934987  1.0000
  O   O9        1.0  0.9606114537802483  0.37161900925779334  0.4222790889991448  1.0000
