data_image0
_chemical_formula_structural       NC9NC3OH6C6ClH3C6FH3Zn2C4O8
_chemical_formula_sum              "N2 C28 O9 H12 Cl1 F1 Zn2"
_cell_length_a       15.78231758774541
_cell_length_b       10.30297070629231
_cell_length_c       9.275646106892307
_cell_angle_alpha    84.95237181000357
_cell_angle_beta     90.10253560025424
_cell_angle_gamma    89.63144908567993

_space_group_name_H-M_alt    "P 1"
_space_group_IT_number       1

loop_
  _space_group_symop_operation_xyz
  'x, y, z'

loop_
  _atom_site_type_symbol
  _atom_site_label
  _atom_site_symmetry_multiplicity
  _atom_site_fract_x
  _atom_site_fract_y
  _atom_site_fract_z
  _atom_site_occupancy
  N   N1        1.0  0.7974885444295445  0.4280625748135954  0.4106548968171544  1.0000
  C   C1        1.0  0.7489636969462445  0.3457685653084157  0.4374161519358388  1.0000
  C   C2        1.0  0.6887182941181921  0.2436216924114012  0.4706337638316847  1.0000
  C   C3        1.0  0.7083920728329114  0.1153096056663614  0.5122721841431195  1.0000
  C   C4        1.0  0.6316669360984908  0.05312375099871836  0.5325346461238802  1.0000
  C   C5        1.0  0.5698780112199734  0.1480889404293111  0.5017633270480184  1.0000
  C   C6        1.0  0.4767885831932278  0.1305303503072779  0.5075544594257453  1.0000
  C   C7        1.0  0.4230340609057397  0.238187054454196  0.4724879017067427  1.0000
  C   C8        1.0  0.3348288507715267  0.22378935519535142  0.4772444495676342  1.0000
  C   C9        1.0  0.280377554849485  0.33457847488320835  0.4411484473678773  1.0000
  N   N2        1.0  0.236611608608647  0.42363864709407023  0.4121304876884577  1.0000
  C   C10       1.0  0.29969689025181306  0.10157469823326126  0.5171220049719327  1.0000
  C   C11       1.0  0.35252046172378215  0.9941405248599264  0.5521209058924643  1.0000
  C   C12       1.0  0.44054004432028077  0.008142709780778462  0.5474936144915694  1.0000
  O   O1        1.0  0.6063266048159686  0.26063607281415174  0.4651870014922816  1.0000
  H   H1        1.0  0.770856240411253  0.07203870881898536  0.5262576406684167  1.0000
  H   H2        1.0  0.62294371248718  0.9508750380063058  0.5657321309939884  1.0000
  H   H3        1.0  0.44963119202795887  0.33329177832941714  0.44145084531644607  1.0000
  H   H4        1.0  0.2315816792300369  0.08938061778003806  0.5211481948673791  1.0000
  H   H5        1.0  0.3251929580130281  0.8996859817197125  0.582946247626984  1.0000
  H   H6        1.0  0.4796339267922382  0.9230471906704216  0.5752243774116585  1.0000
  C   C13       1.0  0.017054106686100745  0.044603071882484135  0.4113989217138696  1.0000
  C   C14       1.0  0.10455452568404028  0.04031200770365562  0.43949291295346665  1.0000
  C   C15       1.0  0.1479698981443177  0.9212260532458154  0.4534323006765453  1.0000
  C   C16       1.0  0.10455452499179141  0.8052040396913991  0.4394928450717442  1.0000
  C   C17       1.0  0.01705411574800529  0.8070880128118819  0.41139900436634025  1.0000
  C   C18       1.0  0.9737304312748164  0.9273742977444639  0.3974889225812239  1.0000
  Cl  Cl1       1.0  0.2572787689505239  0.917369009610576  0.4885282897737904  1.0000
  H   H7        1.0  0.13935556880083713  0.12913061289163053  0.45066645212138456  1.0000
  H   H8        1.0  0.13935553526826505  0.7139294213953594  0.45066634831170244  1.0000
  H   H9        1.0  0.9062474527805081  0.9297553698055319  0.37582194748892594  1.0000
  C   C19       1.0  0.016955506499797254  0.4299100102032008  0.9875581626266466  1.0000
  C   C20       1.0  0.09453837950499738  0.44269737082263894  0.05987971614670773  1.0000
  C   C21       1.0  0.17107097569764684  0.443304978877428  0.984691069544005  1.0000
  C   C22       1.0  0.17136478253172563  0.4310055922129781  0.8363158017537398  1.0000
  C   C23       1.0  0.0951096769122095  0.4203695489716351  0.7620667509723105  1.0000
  C   C24       1.0  0.017152701234320212  0.4217810576791044  0.8352397078709108  1.0000
  F   F1        1.0  0.24527322300943621  0.4542786703686468  0.05637562420384823  1.0000
  H   H10       1.0  0.8204781373859643  0.3264138229025937  0.10005084590415891  1.0000
  H   H11       1.0  0.23078283727419102  0.43095011690038265  0.778200100744201  1.0000
  H   H12       1.0  0.88413734517341  0.35744916072409927  0.5599469822017156  1.0000
  Zn  Zn1       1.0  0.924209973463785  0.42678237710143546  0.41108904845833183  1.0000
  Zn  Zn2       1.0  0.10989015382654549  0.42490813556719753  0.41170813467213074  1.0000
  C   C25       1.0  0.01711356196067393  0.41814557674389763  0.675009740711177  1.0000
  C   C26       1.0  0.016988592984470866  0.4335465521972426  0.14778759084174276  1.0000
  C   C27       1.0  0.017048429035895856  0.6630172983682021  0.40564741748528044  1.0000
  C   C28       1.0  0.017053662567430017  0.1886732706689696  0.41714999080584514  1.0000
  O   O2        1.0  0.08746435787804985  0.4340500800793297  0.20179699065614654  1.0000
  O   O3        1.0  0.08756475751880938  0.4162185674781871  0.6214697975282328  1.0000
  O   O4        1.0  0.08751121231018016  0.613955574711746  0.40395781257310004  1.0000
  O   O5        1.0  0.0875178397014329  0.23631308381036797  0.41930886718104854  1.0000
  O   O6        1.0  0.946582224225363  0.6153774294993382  0.4034883157305582  1.0000
  O   O7        1.0  0.9466357694122775  0.4176419828108209  0.6210002237286301  1.0000
  O   O8        1.0  0.946535369424126  0.43547346681066235  0.20132568156774777  1.0000
  O   O9        1.0  0.9465888512692207  0.23773646021817618  0.41883766630402564  1.0000
