data_image0
_chemical_formula_structural       NC9NC3SH6C7ONH7C8NH7Zn2C4O8
_chemical_formula_sum              "N4 C31 S1 H20 O9 Zn2"
_cell_length_a       16.77567553997237
_cell_length_b       10.297852080636378
_cell_length_c       9.274266800404108
_cell_angle_alpha    85.98589005779941
_cell_angle_beta     89.94189520236782
_cell_angle_gamma    90.87229915396684

_space_group_name_H-M_alt    "P 1"
_space_group_IT_number       1

loop_
  _space_group_symop_operation_xyz
  'x, y, z'

loop_
  _atom_site_type_symbol
  _atom_site_label
  _atom_site_symmetry_multiplicity
  _atom_site_fract_x
  _atom_site_fract_y
  _atom_site_fract_z
  _atom_site_occupancy
  N   N1        1.0  0.7572351008391136  0.429639513393652  0.417840589694806  1.0000
  C   C1        1.0  0.7022767661127571  0.47928426156064613  0.46402121305073374  1.0000
  C   C2        1.0  0.6340726892726128  0.5408901085300502  0.5213278334126752  1.0000
  C   C3        1.0  0.6357341334519628  0.6296994042576172  0.6268458072753189  1.0000
  C   C4        1.0  0.559937083574705  0.6734138699450731  0.6618285957136818  1.0000
  C   C5        1.0  0.498282791688851  0.6188354785878168  0.583442472623946  1.0000
  C   C6        1.0  0.4117348113725742  0.6449853935269714  0.5954904295069623  1.0000
  C   C7        1.0  0.3552135362180657  0.564951057405136  0.5307835540559491  1.0000
  C   C8        1.0  0.2735207270209167  0.5890823183431229  0.5416584314247819  1.0000
  C   C9        1.0  0.2163392100943438  0.5063685665117448  0.4754024201715002  1.0000
  N   N2        1.0  0.1703822492412109  0.43987856515112617  0.4221423764058496  1.0000
  C   C10       1.0  0.2475200739985472  0.6935603217123454  0.6170613950548396  1.0000
  C   C11       1.0  0.3029518768114395  0.7737500759379417  0.6812559402884778  1.0000
  C   C12       1.0  0.3844855456367791  0.7499843131548867  0.6707081019370909  1.0000
  S   S1        1.0  0.5393727476294823  0.515980395400178  0.4712004526685887  1.0000
  H   H1        1.0  0.6899113302602521  0.6619052495567812  0.6776512398756203  1.0000
  H   H2        1.0  0.5513061517452811  0.7418711634954627  0.7434017257315573  1.0000
  H   H3        1.0  0.3742785892843474  0.48324931727247855  0.47255629775645547  1.0000
  H   H4        1.0  0.1844931887563792  0.713082760887161  0.6260415420968715  1.0000
  H   H5        1.0  0.2827078182546441  0.8548378205128234  0.7391307228885421  1.0000
  H   H6        1.0  0.4256983124055804  0.8149685401722535  0.7203978229223849  1.0000
  C   C13       1.0  0.9638974350347512  0.05332416320971524  0.4200010282902198  1.0000
  C   C14       1.0  0.9536395837505308  0.061597495762618415  0.26930559290522754  1.0000
  C   C15       1.0  0.947733598141429  0.9486830135853527  0.19300630308736255  1.0000
  C   C16       1.0  0.9534382604469697  0.8263399636321762  0.2692537675474165  1.0000
  C   C17       1.0  0.9637274617138937  0.8161842154843211  0.4199944656196961  1.0000
  C   C18       1.0  0.9687009156261607  0.9301829127877561  0.49441534015723065  1.0000
  C   C19       1.0  0.9370970658879474  0.9600267354288397  0.033824456829095524  1.0000
  O   O1        1.0  0.9587064269088005  0.06318573530621395  0.9622668942959361  1.0000
  N   N3        1.0  0.901803319956079  0.8568435389201576  0.9590328973410278  1.0000
  H   H7        1.0  0.9835738166697653  0.24496766919076918  0.7047420150928436  1.0000
  H   H8        1.0  0.9495240567033211  0.15623277460821128  0.21115659138280934  1.0000
  H   H9        1.0  0.9514337584906091  0.7387026916981778  0.21141836771427322  1.0000
  H   H10       1.0  0.9766047804829475  0.9230529541503606  0.6105581639283997  1.0000
  H   H11       1.0  0.9844525363628476  0.589763672015442  0.7046150179231496  1.0000
  H   H12       1.0  0.8982748655667938  0.8650722065709122  0.8463686285615816  1.0000
  H   H13       1.0  0.874338515731513  0.776398248192222  0.014135900371828441  1.0000
  C   C20       1.0  0.9656466181617852  0.4319596384994795  0.9967061625069249  1.0000
  C   C21       1.0  0.919340950969644  0.3378270459955169  0.07737407244294703  1.0000
  C   C22       1.0  0.8682090555979936  0.25367683224498494  0.008945163891924676  1.0000
  C   C23       1.0  0.8616781668231285  0.2623434960442892  0.8581792446266198  1.0000
  C   C24       1.0  0.9090789304570775  0.35339785061494317  0.7762165053497334  1.0000
  C   C25       1.0  0.9619782848731101  0.4375487368944593  0.8432893462086959  1.0000
  C   C26       1.0  0.807399723993567  0.17027568544001714  0.784532845390856  1.0000
  C   C27       1.0  0.8505953366826435  0.05259580116341578  0.7537682623682036  1.0000
  N   N4        1.0  0.8846924996398646  0.9597193505334618  0.7294851524134646  1.0000
  H   H14       1.0  0.05340123322946888  0.7200090825605248  0.07705339828300686  1.0000
  H   H15       1.0  0.921377770977005  0.3311503614633975  0.19440934534282905  1.0000
  H   H16       1.0  0.833043821855952  0.1823878383415072  0.07382342440508194  1.0000
  H   H17       1.0  0.905973702685568  0.35628461906229947  0.659293158413329  1.0000
  H   H18       1.0  0.023957787257999897  0.6290322503246017  0.547593530154665  1.0000
  H   H19       1.0  0.7846503059932625  0.21727294083328608  0.6815266385049896  1.0000
  H   H20       1.0  0.7551208366280562  0.14229169496814784  0.8541502333415867  1.0000
  Zn  Zn1       1.0  0.8764604109378995  0.4325908696200427  0.41909032530422025  1.0000
  Zn  Zn2       1.0  0.051156885245099204  0.4369166908872657  0.42090447838451106  1.0000
  C   C28       1.0  0.9626710703011395  0.43131766082574674  0.6832670524181658  1.0000
  C   C29       1.0  0.9649481325837876  0.438191586757039  0.15672791254551344  1.0000
  C   C30       1.0  0.9637804002585791  0.6719494033561233  0.414251643329958  1.0000
  C   C31       1.0  0.9638387430293078  0.19755828268488965  0.42574339787781357  1.0000
  O   O2        1.0  0.031010117266709436  0.44191904542505617  0.21112113536299848  1.0000
  O   O3        1.0  0.029199669432391277  0.4308724177751151  0.6302503148785763  1.0000
  O   O4        1.0  0.030094567200692472  0.6251855808373807  0.4130184594187436  1.0000
  O   O5        1.0  0.03011516035257844  0.24760588946498285  0.42835288212494305  1.0000
  O   O6        1.0  0.89750207621512  0.6219016695674995  0.4116419209371247  1.0000
  O   O7        1.0  0.8966071784285585  0.42759006657217946  0.6288736995262023  1.0000
  O   O8        1.0  0.898417633835379  0.43863663751817317  0.20974278697096677  1.0000
  O   O9        1.0  0.8975226764517773  0.24432347298108126  0.42697464180413636  1.0000
