data_image0
_chemical_formula_structural       NC9NC3OH6C6NO2H5C9H10Zn2C4O8
_chemical_formula_sum              "N3 C31 O11 H21 Zn2"
_cell_length_a       15.78231758774541
_cell_length_b       9.273392599741051
_cell_length_c       9.272679976505534
_cell_angle_alpha    86.14793757912345
_cell_angle_beta     90.48255963298988
_cell_angle_gamma    89.0365174922554

_space_group_name_H-M_alt    "P 1"
_space_group_IT_number       1

loop_
  _space_group_symop_operation_xyz
  'x, y, z'

loop_
  _atom_site_type_symbol
  _atom_site_label
  _atom_site_symmetry_multiplicity
  _atom_site_fract_x
  _atom_site_fract_y
  _atom_site_fract_z
  _atom_site_occupancy
  N   N1        1.0  0.7819345113295467  0.5569398347881751  0.41574976698408483  1.0000
  C   C1        1.0  0.7340656722313977  0.46601040977445085  0.44228708750294965  1.0000
  C   C2        1.0  0.6746345367352753  0.35314489404940774  0.4752267417009015  1.0000
  C   C3        1.0  0.6953308335549024  0.21136691309668842  0.5165160991972072  1.0000
  C   C4        1.0  0.6191015616357642  0.1426564155670933  0.5366093007531377  1.0000
  C   C5        1.0  0.5565560293779951  0.24758871441715027  0.5060962777662488  1.0000
  C   C6        1.0  0.4636068711709319  0.22818915105733772  0.5118395432295972  1.0000
  C   C7        1.0  0.40899394778035497  0.34714159857470905  0.47706599777035863  1.0000
  C   C8        1.0  0.32090378555264587  0.3312344853053753  0.4817832871760778  1.0000
  C   C9        1.0  0.265569078333552  0.4536478427550892  0.4459888326368701  1.0000
  N   N2        1.0  0.22109297798813893  0.5520523772394321  0.417213279941838  1.0000
  C   C10       1.0  0.28674656016971944  0.19619789853277791  0.5213281332797652  1.0000
  C   C11       1.0  0.34042677628932966  0.07749142055135305  0.5560346224213657  1.0000
  C   C12       1.0  0.4283344661981459  0.09296152860791973  0.5514455125340705  1.0000
  O   O1        1.0  0.5921075363375784  0.37194626286887544  0.46982618550906596  1.0000
  H   H1        1.0  0.7581396177614835  0.16355384012141846  0.5303839012334741  1.0000
  H   H2        1.0  0.6111932197992457  0.029677380548903006  0.569528608020311  1.0000
  H   H3        1.0  0.43483254233876245  0.4522239651051741  0.4462878539684489  1.0000
  H   H4        1.0  0.2187287798483804  0.18272538137985306  0.5253210758924365  1.0000
  H   H5        1.0  0.3138526251684639  0.973127455375603  0.5866028211117188  1.0000
  H   H6        1.0  0.4681069061419496  0.9989377116039093  0.5789446546713073  1.0000
  C   C13       1.0  0.0040973327980236025  0.1309314024597057  0.4155835424222844  1.0000
  C   C14       1.0  0.9927782376375228  0.21333244906487425  0.28385014624297455  1.0000
  C   C15       1.0  0.9740001284014065  0.14741322825460945  0.15687054992574012  1.0000
  C   C16       1.0  0.9659221274787422  0.9970971647673383  0.15808210001764111  1.0000
  C   C17       1.0  0.9785590015399248  0.9135049059206429  0.28881455727524363  1.0000
  C   C18       1.0  0.9989383611540631  0.9780497065668334  0.417391925774355  1.0000
  N   N3        1.0  0.9458084773407162  0.9297409934162643  0.026870688563793262  1.0000
  O   O2        1.0  0.9341765509022864  0.01192737345427952  0.8988401507826356  1.0000
  O   O3        1.0  0.9383472650307777  0.7958926515315843  0.027075983095220746  1.0000
  H   H7        1.0  0.988259098927197  0.2104665772452255  0.769369282138155  1.0000
  H   H8        1.0  0.9964656025997698  0.3300991351278788  0.27960297534916556  1.0000
  H   H9        1.0  0.9649443716996677  0.2146251410899429  0.05775434438164684  1.0000
  H   H10       1.0  0.9744701326628359  0.7969566111417177  0.2898271608858293  1.0000
  H   H11       1.0  0.9911651866349055  0.6819967804452106  0.6565044993264681  1.0000
  C   C19       1.0  0.9998205521621116  0.5511037268585772  0.993112081445203  1.0000
  C   C20       1.0  0.05794993283786051  0.4612415594238606  0.07337973594064828  1.0000
  C   C21       1.0  0.12018102383168044  0.3830212542205187  0.00481901692592923  1.0000
  C   C22       1.0  0.1263866652753285  0.39209007777262805  0.8539971407384712  1.0000
  C   C23       1.0  0.06725208715941977  0.4800059906755914  0.7723376409978651  1.0000
  C   C24       1.0  0.0032151274048624065  0.5578774376115286  0.8398634690725517  1.0000
  C   C25       1.0  0.1965766908375577  0.30442739293429155  0.787895553298675  1.0000
  C   C26       1.0  0.176801700059513  0.23864271415867022  0.6455875275798442  1.0000
  C   C27       1.0  0.23561642653581744  0.3671298788920805  0.6482433894403256  1.0000
  H   H12       1.0  0.8716385970914605  0.6500455460888119  0.2658459779745907  1.0000
  H   H13       1.0  0.05665278847079211  0.4539807774365954  0.19043433525348896  1.0000
  H   H14       1.0  0.16445387199164707  0.3158755196843162  0.07045530381947418  1.0000
  H   H15       1.0  0.06910958924478705  0.48622030271818384  0.6555783654724079  1.0000
  H   H16       1.0  0.8100106394488645  0.6957110746686557  0.724809329098453  1.0000
  H   H17       1.0  0.24125959361677152  0.23904914166746694  0.8600908963359305  1.0000
  H   H18       1.0  0.11371028798955657  0.2639572037252713  0.5957487198644839  1.0000
  H   H19       1.0  0.21034749411514408  0.13443799263026768  0.631181537033247  1.0000
  H   H20       1.0  0.20829287331701196  0.4704267599523666  0.5999011707759427  1.0000
  H   H21       1.0  0.3035468085664932  0.33801071705913777  0.6353858176175029  1.0000
  Zn  Zn1       1.0  0.9086662116306292  0.5555256338673853  0.4161804158367533  1.0000
  Zn  Zn2       1.0  0.09436136813585305  0.553454900213622  0.4167943916359378  1.0000
  C   C28       1.0  0.002606592183165723  0.5508509547708476  0.6797970104558884  1.0000
  C   C29       1.0  0.00042300485257440224  0.5581313777511674  0.15317794911307292  1.0000
  C   C30       1.0  0.999886120882306  0.8178804314319305  0.4113049102897198  1.0000
  C   C31       1.0  0.003143423650451729  0.2911001694724471  0.42167012223536227  1.0000
  O   O4        1.0  0.07109557593646082  0.5596977963432211  0.2071305037048265  1.0000
  O   O5        1.0  0.07287235315618207  0.5477118058071362  0.626310031942215  1.0000
  O   O6        1.0  0.07067459421164579  0.7633415078454112  0.40950076149254433  1.0000
  O   O7        1.0  0.07329327101961275  0.3440681044649068  0.4239396658667919  1.0000
  O   O8        1.0  0.9297342453781863  0.7649124303242502  0.4090351413887996  1.0000
  O   O9        1.0  0.9319319934570219  0.5492844606117615  0.6258443386652495  1.0000
  O   O10       1.0  0.9301552096507042  0.5612703870175775  0.20666307693600242  1.0000
  O   O11       1.0  0.9323529052265574  0.3456406856874521  0.42347234716857396  1.0000
