data_image0
_chemical_formula_structural       NC5NC3F3CH3C7NH5C6SCH8Zn2C4O8
_chemical_formula_sum              "N3 C27 F3 H16 S1 Zn2 O8"
_cell_length_a       13.85151926108384
_cell_length_b       9.275154477615127
_cell_length_c       10.302812801239591
_cell_angle_alpha    85.78691219350036
_cell_angle_beta     89.99987069690108
_cell_angle_gamma    89.43371178103573

_space_group_name_H-M_alt    "P 1"
_space_group_IT_number       1

loop_
  _space_group_symop_operation_xyz
  'x, y, z'

loop_
  _atom_site_type_symbol
  _atom_site_label
  _atom_site_symmetry_multiplicity
  _atom_site_fract_x
  _atom_site_fract_y
  _atom_site_fract_z
  _atom_site_occupancy
  N   N1        1.0  0.8986418474871959  0.5778878727580596  0.5735785337703705  1.0000
  C   C1        1.0  0.8263723154417415  0.568810246808205  0.6298035860474167  1.0000
  C   C2        1.0  0.736463336847983  0.5575164352635047  0.6997555946674864  1.0000
  C   C3        1.0  0.6488763788736656  0.5667355268494669  0.6317709286871034  1.0000
  C   C4        1.0  0.5614113474311155  0.5575164221212028  0.6997555765558521  1.0000
  C   C5        1.0  0.47135306321546666  0.568810262953787  0.6298036708222918  1.0000
  N   N2        1.0  0.3989636621244623  0.5778878348788656  0.5735786286060081  1.0000
  C   C6        1.0  0.5615306140591738  0.538080507177403  0.8358798738293366  1.0000
  C   C7        1.0  0.6491477494749868  0.5256724190818787  0.904989804991128  1.0000
  C   C8        1.0  0.6492506057725916  0.5100992034832263  0.05175105927725132  1.0000
  F   F1        1.0  0.7306799418245903  0.43530345096276407  0.09795652192097903  1.0000
  F   F2        1.0  0.5688111273661828  0.4353034203710331  0.09795661123841637  1.0000
  F   F3        1.0  0.6483519130894461  0.645878957886365  0.09881464694535888  1.0000
  C   C9        1.0  0.7366009415303028  0.5380804119481384  0.8358798911561719  1.0000
  H   H1        1.0  0.6487758941346817  0.5819436611946855  0.5263792418304627  1.0000
  H   H2        1.0  0.4934415409903371  0.5329038002525635  0.8877828905383182  1.0000
  H   H3        1.0  0.8047582950448766  0.5329037193740633  0.8877828532879087  1.0000
  C   C10       1.0  0.1516010402004233  0.15449857333114614  0.5720762228583334  1.0000
  C   C11       1.0  0.125101719028609  0.23767765823797118  0.45760798596034163  1.0000
  C   C12       1.0  0.09074982641863906  0.17163923351449564  0.3492033012544617  1.0000
  C   C13       1.0  0.08233163543235335  0.021518708778601296  0.35399015320766525  1.0000
  C   C14       1.0  0.1097257270620704  0.937131948830713  0.46584917796111314  1.0000
  C   C15       1.0  0.14601377375884256  0.001266091459158237  0.5750921220381686  1.0000
  C   C16       1.0  0.06296611307267064  0.25840013074455115  0.23335542350381971  1.0000
  N   N3        1.0  0.040635714261991085  0.3281399860772139  0.14024340395939605  1.0000
  H   H4        1.0  0.1703199886392089  0.23116963108565303  0.8907540313829359  1.0000
  H   H5        1.0  0.12904438334250415  0.3546370585180354  0.45375586120161543  1.0000
  H   H6        1.0  0.05541563786523196  0.9693921332339984  0.2706743446019677  1.0000
  H   H7        1.0  0.10465627513700082  0.820664352818155  0.46573492270918776  1.0000
  H   H8        1.0  0.16271453965355545  0.7024958461937979  0.7886153188732798  1.0000
  C   C17       1.0  0.14880743325122506  0.5778823289946435  0.19233569248448967  1.0000
  C   C18       1.0  0.11530077905064484  0.7216625072656372  0.18165049866000427  1.0000
  C   C19       1.0  0.09838143856188997  0.7929903315420666  0.05935754091559819  1.0000
  C   C20       1.0  0.11530069301541125  0.7216623559174862  0.9464993284317056  1.0000
  C   C21       1.0  0.14880737069554995  0.5778823192783948  0.9548325960794165  1.0000
  C   C22       1.0  0.16536730306005598  0.5066822567679654  0.07829316065817714  1.0000
  S   S1        1.0  0.05576930246928848  0.9767975217812663  0.047200860561414926  1.0000
  C   C23       1.0  0.9291134437129358  0.9264238151629905  0.0505335730955625  1.0000
  H   H9        1.0  0.16139871936923655  0.5236800658499703  0.5236767237415326  1.0000
  H   H10       1.0  0.10199061503600598  0.7787724043242303  0.2679729518537999  1.0000
  H   H11       1.0  0.1019904231225757  0.7787721966347525  0.8526226381319759  1.0000
  H   H12       1.0  0.1911950272616752  0.395768674259182  0.08562867132086135  1.0000
  H   H13       1.0  0.16139692673934544  0.5236793173205441  0.6306611355613375  1.0000
  H   H14       1.0  0.9124176205280986  0.8622842638005325  0.9666588090380474  1.0000
  H   H15       1.0  0.9124180243920978  0.8622857208923691  0.1428935062611749  1.0000
  H   H16       1.0  0.8837755804439917  0.025939621668272128  0.04395150094474998  1.0000
  Zn  Zn1       1.0  0.043023941219867856  0.5778840128181515  0.5735860305985951  1.0000
  Zn  Zn2       1.0  0.25458162853154853  0.577879934880243  0.5735816754266607  1.0000
  C   C24       1.0  0.14884313044760972  0.5721385851903581  0.8106839106838375  1.0000
  C   C25       1.0  0.1487647375036525  0.5836271816311187  0.33648392919922493  1.0000
  C   C26       1.0  0.14706491304677138  0.8412089867723769  0.569348483717529  1.0000
  C   C27       1.0  0.15054289414444336  0.3145550478290806  0.5778194192142756  1.0000
  O   O1        1.0  0.22903548971707655  0.5855473690897701  0.3848597190834499  1.0000
  O   O2        1.0  0.22913977496895035  0.5702142149999261  0.7623044377230638  1.0000
  O   O3        1.0  0.22770275964830455  0.7874919671579046  0.5674243783212305  1.0000
  O   O4        1.0  0.23047243277936705  0.3682696272470324  0.5797396811795911  1.0000
  O   O5        1.0  0.0671330647777828  0.7874943204543237  0.5674280248403283  1.0000
  O   O6        1.0  0.06857006866420923  0.5702183005193258  0.7623080211880826  1.0000
  O   O7        1.0  0.06846578380817925  0.5855514043667989  0.3848617414620021  1.0000
  O   O8        1.0  0.06990272693455894  0.368273652211782  0.5797418008584987  1.0000
