data_image0
_chemical_formula_structural       NC9NC3OH6C6H4C6NCH7Zn2C4O8
_chemical_formula_sum              "N3 C29 O9 H17 Zn2"
_cell_length_a       15.78231758774541
_cell_length_b       10.681118228259553
_cell_length_c       9.273390368590327
_cell_angle_alpha    86.16779738115358
_cell_angle_beta     90.0787864382203
_cell_angle_gamma    89.63144314392761

_space_group_name_H-M_alt    "P 1"
_space_group_IT_number       1

loop_
  _space_group_symop_operation_xyz
  'x, y, z'

loop_
  _atom_site_type_symbol
  _atom_site_label
  _atom_site_symmetry_multiplicity
  _atom_site_fract_x
  _atom_site_fract_y
  _atom_site_fract_z
  _atom_site_occupancy
  N   N1        1.0  0.7980055050520329  0.34815729743292056  0.412886624968996  1.0000
  C   C1        1.0  0.7494719569715201  0.2692709160535425  0.43961030008280777  1.0000
  C   C2        1.0  0.6892157544607794  0.17135374528162806  0.4727812655112122  1.0000
  C   C3        1.0  0.7088759957448003  0.04835318646536057  0.5143612142628149  1.0000
  C   C4        1.0  0.6321442712870753  0.9887430641656773  0.534595222298401  1.0000
  C   C5        1.0  0.5703653507314721  0.07977797772656571  0.5038671144502639  1.0000
  C   C6        1.0  0.47727403987963773  0.06294795332318714  0.5096501145295922  1.0000
  C   C7        1.0  0.4235309184144808  0.16614574822216377  0.47463279968847805  1.0000
  C   C8        1.0  0.3353241618198365  0.15234560503374195  0.47938266808525354  1.0000
  C   C9        1.0  0.28088460141451704  0.2585459088577997  0.44333735437916033  1.0000
  N   N2        1.0  0.2371280894805552  0.34391723824420595  0.4143601437181721  1.0000
  C   C10       1.0  0.30017923631419186  0.03519409231443582  0.5192042246856308  1.0000
  C   C11       1.0  0.3529914289593728  0.9322097005763976  0.5541539777372149  1.0000
  C   C12       1.0  0.441012515992416  0.9456307186698625  0.5495331842896565  1.0000
  O   O1        1.0  0.606825835987514  0.1876651855706457  0.46734215190284134  1.0000
  H   H1        1.0  0.7713356164009003  0.006872464700400592  0.5283270314323274  1.0000
  H   H2        1.0  0.6234102545478358  0.8907272871375882  0.5677460889581953  1.0000
  H   H3        1.0  0.4501381403017587  0.25731034943294473  0.4436393276651664  1.0000
  H   H4        1.0  0.23206271628822772  0.02350606644117947  0.5232247607344034  1.0000
  H   H5        1.0  0.3256539033161133  0.8416683522297812  0.5849360324090735  1.0000
  H   H6        1.0  0.4800973826494159  0.8640599123939825  0.5772250057622668  1.0000
  C   C13       1.0  0.017570851200995996  0.9782872900372116  0.4136295896132185  1.0000
  C   C14       1.0  0.054757020118919586  0.9044710842107868  0.5282168861871273  1.0000
  C   C15       1.0  0.054757007170556954  0.773588845552017  0.5282168202484373  1.0000
  C   C16       1.0  0.01757083696906592  0.7137776947063295  0.4136296518706406  1.0000
  C   C17       1.0  0.9804154509002755  0.7875830762697339  0.2991370474473556  1.0000
  C   C18       1.0  0.9804154638068978  0.918475334783692  0.29913710598734555  1.0000
  H   H7        1.0  0.08390534393341337  0.9477930923116634  0.6180357727089669  1.0000
  H   H8        1.0  0.08390523975927938  0.7192890644868865  0.6180357469000353  1.0000
  H   H9        1.0  0.9512633265507536  0.7443065398285307  0.20930643337137345  1.0000
  H   H10       1.0  0.9512633043415174  0.9727309789687372  0.209306421577313  1.0000
  C   C19       1.0  0.017610111886355417  0.34212690003777485  0.9903839798364071  1.0000
  C   C20       1.0  0.09543253406466085  0.3388872112687682  0.06424760534032226  1.0000
  C   C21       1.0  0.1718975575016628  0.34730210468073486  0.9890894027348666  1.0000
  C   C22       1.0  0.17248295444332384  0.3592771911513133  0.837463379339987  1.0000
  C   C23       1.0  0.09517699146138464  0.3603999461117941  0.7627918847160888  1.0000
  C   C24       1.0  0.017531586125633544  0.3499380767703845  0.83687525142347  1.0000
  N   N3        1.0  0.2503800883330829  0.3691201683303155  0.7569364993122445  1.0000
  C   C25       1.0  0.3340397358487679  0.3684599723812243  0.8242054242820611  1.0000
  H   H11       1.0  0.8838703946316528  0.2832631239441301  0.2757751956477601  1.0000
  H   H12       1.0  0.23027769691280287  0.3455860630729308  0.05040630666672551  1.0000
  H   H13       1.0  0.8200653169285143  0.2545536381534115  0.7407215448856692  1.0000
  H   H14       1.0  0.24763083711465517  0.3774462965944385  0.6440514411632767  1.0000
  H   H15       1.0  0.3395388212862489  0.44874089566629216  0.8936924173851368  1.0000
  H   H16       1.0  0.3443753004564978  0.27884319141193403  0.8897940385191417  1.0000
  H   H17       1.0  0.3836955950471419  0.3774477740724116  0.7394814827130696  1.0000
  Zn  Zn1       1.0  0.9247267929315367  0.34693043958399383  0.41332016694664175  1.0000
  Zn  Zn2       1.0  0.11040677201549992  0.34513398385731797  0.41393838379796777  1.0000
  C   C26       1.0  0.017544521424704296  0.34347267302805484  0.6768702760419363  1.0000
  C   C27       1.0  0.017591071128751468  0.3485933122048783  0.15038842291678955  1.0000
  C   C28       1.0  0.01756700283128708  0.5747013703972941  0.4078861863800822  1.0000
  C   C29       1.0  0.017568526355490333  0.11736311157448376  0.41937258920903475  1.0000
  O   O2        1.0  0.08804926525976264  0.3500762901992376  0.20432198574596216  1.0000
  O   O3        1.0  0.08801313511469155  0.34062527813975146  0.6234055106015763  1.0000
  O   O4        1.0  0.08803033909946006  0.5273453985708365  0.4061989519299751  1.0000
  O   O5        1.0  0.08803199792502209  0.1633561783424151  0.4215284361395848  1.0000
  O   O6        1.0  0.9471015036585515  0.5287082457132324  0.40573011438647666  1.0000
  O   O7        1.0  0.9470842996769978  0.34198962915763803  0.6229365962091388  1.0000
  O   O8        1.0  0.9471204300392166  0.3514405815865189  0.2038513385013238  1.0000
  O   O9        1.0  0.9471031626909846  0.164720461769769  0.42105789695437723  1.0000
