data_image0
_chemical_formula_structural       NC5OC5NC4H8C6BrH5C7F3H5Zn2C4O8
_chemical_formula_sum              "N2 C31 O9 H18 Br1 F3 Zn2"
_cell_length_a       19.189071930511275
_cell_length_b       9.276564384272257
_cell_length_c       10.299327507215196
_cell_angle_alpha    85.50433020317719
_cell_angle_beta     89.9592371194645
_cell_angle_gamma    90.57707898574843

_space_group_name_H-M_alt    "P 1"
_space_group_IT_number       1

loop_
  _space_group_symop_operation_xyz
  'x, y, z'

loop_
  _atom_site_type_symbol
  _atom_site_label
  _atom_site_symmetry_multiplicity
  _atom_site_fract_x
  _atom_site_fract_y
  _atom_site_fract_z
  _atom_site_occupancy
  N   N1        1.0  0.6642707547628327  0.5782775139272052  0.5657795348409163  1.0000
  C   C1        1.0  0.6100702312020035  0.6294909072000785  0.5474481491607808  1.0000
  C   C2        1.0  0.5426517595822032  0.6931918343275763  0.5246466607474098  1.0000
  C   C3        1.0  0.5335059831082862  0.800833932184879  0.4231430100855724  1.0000
  C   C4        1.0  0.4680165921316238  0.8627923249591434  0.40111983345825686  1.0000
  C   C5        1.0  0.41101387372184  0.8169938592290844  0.4792450581143604  1.0000
  O   O1        1.0  0.3463738389013224  0.8829851972772581  0.4549538029676625  1.0000
  C   C6        1.0  0.2810718961081823  0.8167834622667096  0.47868098707600626  1.0000
  C   C7        1.0  0.22472996986668642  0.9029354882162917  0.5088760766598028  1.0000
  C   C8        1.0  0.1586216792422618  0.8412939590136281  0.5317497116593493  1.0000
  C   C9        1.0  0.1481927031474241  0.6926985287548848  0.5233228485420274  1.0000
  C   C10       1.0  0.0801372730847345  0.6292191091500525  0.546718672046143  1.0000
  N   N2        1.0  0.0254247087739094  0.5781838637090386  0.5655283125217201  1.0000
  C   C11       1.0  0.2040600366563707  0.6062044807014164  0.49121054790899765  1.0000
  C   C12       1.0  0.2701596761224806  0.6678897991507122  0.4683805167422572  1.0000
  C   C13       1.0  0.4206464859322497  0.710353818808937  0.5823663949843969  1.0000
  C   C14       1.0  0.48612693039913923  0.6483908588609271  0.6044509558581919  1.0000
  H   H1        1.0  0.5769439173843782  0.8369458681317556  0.3612214575860826  1.0000
  H   H2        1.0  0.4614073554105144  0.9461285146845141  0.3225831738968419  1.0000
  H   H3        1.0  0.23233246268641422  0.017946567665151573  0.5153644666399169  1.0000
  H   H4        1.0  0.115705706521251  0.9094343883136391  0.5558024486604469  1.0000
  H   H5        1.0  0.19645214367350516  0.49136371140778096  0.48314710536864935  1.0000
  H   H6        1.0  0.3123682923576926  0.5999816445160653  0.4409137241893981  1.0000
  H   H7        1.0  0.37792902546240353  0.6766592814480045  0.6467394364569226  1.0000
  H   H8        1.0  0.4927482746595006  0.5662180453531684  0.6840782547026947  1.0000
  C   C15       1.0  0.8427514281202457  0.1547502362290647  0.5659874840856245  1.0000
  C   C16       1.0  0.833841772551938  0.23827006786935412  0.44729265486696934  1.0000
  C   C17       1.0  0.8314174362843285  0.17329989063416032  0.3297020409365099  1.0000
  C   C18       1.0  0.8378876646590007  0.023891225721353933  0.328573431510657  1.0000
  C   C19       1.0  0.8455699599863278  0.9386786588689994  0.44547415458856565  1.0000
  C   C20       1.0  0.8469506715359139  0.001700050654146469  0.5653315396045091  1.0000
  Br  Br1       1.0  0.8350835565824193  0.9355589644504461  0.16721820020908162  1.0000
  H   H9        1.0  0.8222791486121536  0.41727550903527205  0.7771457500974273  1.0000
  H   H10       1.0  0.8304031231581654  0.3549276932849684  0.445071643534924  1.0000
  H   H11       1.0  0.8251710570465913  0.2395356388034231  0.239241663062427  1.0000
  H   H12       1.0  0.8487948100590508  0.8224382707231225  0.44267185337846593  1.0000
  H   H13       1.0  0.8853580955808573  0.7037263624564344  0.7675795610626421  1.0000
  C   C21       1.0  0.8449180733680964  0.5782837145379502  0.18427786028760096  1.0000
  C   C22       1.0  0.9129256474846618  0.63608873408235  0.17891549866091538  1.0000
  C   C23       1.0  0.9467360587181993  0.6676969181095966  0.05891260881669825  1.0000
  C   C24       1.0  0.9127496556483318  0.6359358571933786  0.9436782813323399  1.0000
  C   C25       1.0  0.8447840455892126  0.5781666243597496  0.947041220121979  1.0000
  C   C26       1.0  0.8111615637106663  0.5502102194498462  0.06781373045546002  1.0000
  C   C27       1.0  0.020674631184068645  0.724863417377253  0.0545547495948826  1.0000
  F   F1        1.0  0.03326492495316869  0.8090730490123417  0.15737222790310534  1.0000
  F   F2        1.0  0.06613580514455486  0.609873735712192  0.06248072740712485  1.0000
  F   F3        1.0  0.03307338340198275  0.8090535328583455  0.9397289725676181  1.0000
  H   H14       1.0  0.7170405973599634  0.4667877187938356  0.401804897409966  1.0000
  H   H15       1.0  0.9397509716947267  0.6563646304845001  0.2682777303123969  1.0000
  H   H16       1.0  0.9394542453990713  0.6561030118032716  0.8512641179242385  1.0000
  H   H17       1.0  0.7587443367329513  0.505660235088986  0.07114181991770696  1.0000
  H   H18       1.0  0.8190976499869999  0.5535900162036784  0.6210465128316267  1.0000
  Zn  Zn1       1.0  0.7684919729240708  0.5782466402446146  0.5657145347792927  1.0000
  Zn  Zn2       1.0  0.9212034478532188  0.5782029827733697  0.5656039404141768  1.0000
  C   C28       1.0  0.8447793218749318  0.5724437707331215  0.8028670514621882  1.0000
  C   C29       1.0  0.8449177755060241  0.5840076713479194  0.32845154858519243  1.0000
  C   C30       1.0  0.8461542451706344  0.8416093253318843  0.5602802199499095  1.0000
  C   C31       1.0  0.8435427914980682  0.3148403841589869  0.5710384507179247  1.0000
  O   O2        1.0  0.9028708532208103  0.5859058243951512  0.3767955903077813  1.0000
  O   O3        1.0  0.9027307148001548  0.5705113948272831  0.7544386981594182  1.0000
  O   O4        1.0  0.9038402012754094  0.7878659842448219  0.5585481147757301  1.0000
  O   O5        1.0  0.9017613147037352  0.3685512453235285  0.5726860763432933  1.0000
  O   O6        1.0  0.787934053960632  0.7878983777109252  0.5586323988810837  1.0000
  O   O7        1.0  0.7868245760847079  0.5705455209000251  0.7545229116752268  1.0000
  O   O8        1.0  0.7869647145769666  0.5859399004544013  0.37687824240955226  1.0000
  O   O9        1.0  0.7858551759887894  0.3685853110533315  0.5727688258241488  1.0000
