data_image0
_chemical_formula_structural       NC5NC3OH4C7NH5C7OH5Zn2C4O8
_chemical_formula_sum              "N3 C26 O10 H14 Zn2"
_cell_length_a       13.84702359539666
_cell_length_b       9.275154477615127
_cell_length_c       9.274074313596557
_cell_angle_alpha    86.3499061385644
_cell_angle_beta     90.21930263959183
_cell_angle_gamma    89.43463511314383

_space_group_name_H-M_alt    "P 1"
_space_group_IT_number       1

loop_
  _space_group_symop_operation_xyz
  'x, y, z'

loop_
  _atom_site_type_symbol
  _atom_site_label
  _atom_site_symmetry_multiplicity
  _atom_site_fract_x
  _atom_site_fract_y
  _atom_site_fract_z
  _atom_site_occupancy
  N   N1        1.0  0.8947084498241357  0.5623937469697673  0.41606713937113327  1.0000
  C   C1        1.0  0.8227896692776628  0.5543446684321522  0.47908673854886685  1.0000
  C   C2        1.0  0.733223789351591  0.5443218652830886  0.5575594179314511  1.0000
  C   C3        1.0  0.6453686110615912  0.5540045224810648  0.48174917629100245  1.0000
  C   C4        1.0  0.5577750942190443  0.5444343620587145  0.5566782102599976  1.0000
  C   C5        1.0  0.4676449978373473  0.5544034174595673  0.47862645785857505  1.0000
  N   N2        1.0  0.3951920518047561  0.5624177748811049  0.4158790715602467  1.0000
  C   C6        1.0  0.5580322093883875  0.5251526543689691  0.7076427169847923  1.0000
  C   C7        1.0  0.6455074045701301  0.515460945140226  0.7835209446633755  1.0000
  C   C8        1.0  0.7334180809530213  0.5249694446701421  0.7090762824802943  1.0000
  O   O1        1.0  0.820614112330437  0.5152612078068985  0.7850858301476586  1.0000
  H   H1        1.0  0.6451739998049475  0.5689424484735441  0.3647948669642116  1.0000
  H   H2        1.0  0.4906883255001211  0.5176204254463508  0.7666153145598555  1.0000
  H   H3        1.0  0.6449228345851689  0.5005526550230606  0.9002439927196972  1.0000
  H   H4        1.0  0.8225367521595607  0.5013084267744123  0.8943269036720675  1.0000
  C   C9        1.0  0.1477449890379563  0.13900023184173846  0.4143041594648582  1.0000
  C   C10       1.0  0.12089813128237692  0.22093119993394827  0.2872329504868729  1.0000
  C   C11       1.0  0.0862141185675307  0.15371032846666632  0.16689637293873294  1.0000
  C   C12       1.0  0.07780738054914438  0.0036415401926273025  0.1722138407856919  1.0000
  C   C13       1.0  0.10554157158588806  0.9204745192112274  0.2963879992515308  1.0000
  C   C14       1.0  0.14216484673676713  0.9858003322984362  0.4176544734958485  1.0000
  C   C15       1.0  0.058078367877387516  0.23920801947487672  0.03829398734075617  1.0000
  N   N3        1.0  0.03546502140632037  0.30793258060087414  0.9349306103030046  1.0000
  H   H5        1.0  0.1674136718339576  0.219143383615092  0.7680891532807779  1.0000
  H   H6        1.0  0.12483066340350193  0.3378488303250342  0.28295488800235113  1.0000
  H   H7        1.0  0.050635961486063634  0.9506061553570164  0.0797278166031603  1.0000
  H   H8        1.0  0.10047014209928394  0.8040054352171584  0.2962630610617696  1.0000
  H   H9        1.0  0.15950330634420906  0.6893566885042248  0.6546989191835677  1.0000
  C   C16       1.0  0.14382597586038526  0.5582475331634644  0.9927221223476042  1.0000
  C   C17       1.0  0.05934291960172544  0.600810636171841  0.06281103421248235  1.0000
  C   C18       1.0  0.9795390400295401  0.6549614180164276  0.983872918534376  1.0000
  C   C19       1.0  0.9823503119268607  0.6679894462884157  0.8326433713716903  1.0000
  C   C20       1.0  0.06554091870703638  0.6236855547316681  0.761408176655936  1.0000
  C   C21       1.0  0.14608382207126902  0.5665529627912411  0.8392365181983426  1.0000
  C   C22       1.0  0.8988968639740768  0.7261050802792789  0.7475138292206851  1.0000
  O   O2        1.0  0.8229552642831831  0.7662744998391116  0.8084074891342108  1.0000
  H   H10       1.0  0.38003031521286335  0.5215244161391406  0.09927667194871814  1.0000
  H   H11       1.0  0.9159574082150576  0.6879651878440264  0.041428974077408975  1.0000
  H   H12       1.0  0.06661391319734955  0.6306729357087277  0.6442787376628565  1.0000
  H   H13       1.0  0.3048921346563096  0.5365931119744958  0.5615925177534207  1.0000
  H   H14       1.0  0.9022684442247056  0.7348570111492823  0.6306776483777985  1.0000
  Zn  Zn1       1.0  0.03913725219132402  0.5623969025484221  0.41602116268114253  1.0000
  Zn  Zn2       1.0  0.25076333449455274  0.5624029370969956  0.4159367644894496  1.0000
  C   C23       1.0  0.14569276217172344  0.5592391432652535  0.679204404801593  1.0000
  C   C24       1.0  0.1442101238535146  0.5655625170716616  0.15275367011191432  1.0000
  C   C25       1.0  0.14319931762169458  0.8256807155651935  0.41127756426032014  1.0000
  C   C26       1.0  0.14670350781055208  0.2991192132355418  0.42068058067194647  1.0000
  O   O3        1.0  0.2246500842155137  0.5680134923223199  0.20642966588727574  1.0000
  O   O4        1.0  0.22587210764467264  0.5567916563133871  0.6254639335401571  1.0000
  O   O5        1.0  0.22385754100341848  0.7719466102326341  0.4091111205394158  1.0000
  O   O6        1.0  0.2266645782869024  0.3528585476549422  0.42278237088765547  1.0000
  O   O7        1.0  0.06323593618134837  0.771941291989912  0.40917555630416236  1.0000
  O   O8        1.0  0.06525049119796766  0.5567880696062806  0.6255282993073707  1.0000
  O   O9        1.0  0.06402846354202874  0.5680098383687422  0.2064922985560802  1.0000
  O   O10       1.0  0.06604295796565629  0.3528548844489315  0.4228451115780478  1.0000
