data_image0
_chemical_formula_structural       NC9NC3OH5C7OC3FC3H9C7OC6OCH11Zn2C4O8
_chemical_formula_sum              "N2 C43 O12 H25 F1 Zn2"
_cell_length_a       15.78231758774541
_cell_length_b       10.29937835083307
_cell_length_c       10.299362532796529
_cell_angle_alpha    85.57000454149363
_cell_angle_beta     90.09919445181322
_cell_angle_gamma    89.65202187042593

_space_group_name_H-M_alt    "P 1"
_space_group_IT_number       1

loop_
  _space_group_symop_operation_xyz
  'x, y, z'

loop_
  _atom_site_type_symbol
  _atom_site_label
  _atom_site_symmetry_multiplicity
  _atom_site_fract_x
  _atom_site_fract_y
  _atom_site_fract_z
  _atom_site_occupancy
  N   N1        1.0  0.7979411272216353  0.41287803504135967  0.5697100606693588  1.0000
  C   C1        1.0  0.7493950181198745  0.33081883005250545  0.593802042153412  1.0000
  C   C2        1.0  0.6891232244253886  0.22896341047881874  0.623706397622476  1.0000
  C   C3        1.0  0.7087638587177644  0.10101656479718771  0.6611916779195548  1.0000
  C   C4        1.0  0.6320226525536132  0.0390085382163845  0.6794330627962684  1.0000
  C   C5        1.0  0.570258254827531  0.13370386038262502  0.6517309452083636  1.0000
  C   C6        1.0  0.47716428429475755  0.11619617144584725  0.6569444089932766  1.0000
  C   C7        1.0  0.42343758065501363  0.22354513650521257  0.6253755557100413  1.0000
  C   C8        1.0  0.3352286451653009  0.20918925356463536  0.6296576316760496  1.0000
  C   C9        1.0  0.2808059779908602  0.31966158985730364  0.5971620198545802  1.0000
  N   N2        1.0  0.23706304567906802  0.4084670949622366  0.5710384529212361  1.0000
  C   C10       1.0  0.3000650990652501  0.08732463232859054  0.6655575786124956  1.0000
  C   C11       1.0  0.3528609090329062  0.9801976096066451  0.6970655212463939  1.0000
  C   C12       1.0  0.4408841147516667  0.994159113015427  0.6928998088892435  1.0000
  O   O1        1.0  0.6067359245823029  0.24593009566611568  0.6188028765365359  1.0000
  H   H1        1.0  0.6232730157223537  0.9370510432833403  0.7093193237597328  1.0000
  H   H2        1.0  0.45005929136118256  0.3183774187141399  0.5974343098468331  1.0000
  H   H3        1.0  0.23194673304161612  0.07516594483509009  0.6691821518646621  1.0000
  H   H4        1.0  0.32550899374094155  0.8860136502277631  0.7248161698447602  1.0000
  H   H5        1.0  0.4799560074549849  0.9093069693688799  0.7178645681971954  1.0000
  C   C13       1.0  0.017416832629755463  0.02928847964406089  0.5704380058175915  1.0000
  C   C14       1.0  0.9290091096338343  0.030179331672478542  0.5541458691152964  1.0000
  C   C15       1.0  0.8843113722611619  0.9133423657072889  0.5474055838133091  1.0000
  C   C16       1.0  0.9292162947221478  0.7949332496878204  0.5541533710757907  1.0000
  C   C17       1.0  0.01759540812209524  0.7920466236847334  0.5703217529786124  1.0000
  C   C18       1.0  0.06115822459490983  0.9097497490958874  0.5787123683803398  1.0000
  C   C19       1.0  0.7910633811748524  0.9142439550649173  0.5288293365521856  1.0000
  O   O2        1.0  0.7583239614653307  0.8298622606463734  0.46206966306155  1.0000
  C   C20       1.0  0.7349563114788492  0.010772428666940618  0.5859982096798422  1.0000
  C   C21       1.0  0.6594675929358136  0.05150957153788216  0.5219893536030402  1.0000
  C   C22       1.0  0.6056527939441015  0.1413233420641138  0.5758871600600388  1.0000
  F   F1        1.0  0.5333455851895257  0.18072092185813893  0.5129492826424156  1.0000
  C   C23       1.0  0.6262963487391526  0.19044857410955318  0.6945540308204563  1.0000
  C   C24       1.0  0.7005688529964853  0.14947166682983992  0.7597737640285988  1.0000
  C   C25       1.0  0.754558923820186  0.05972786590863244  0.706281197712514  1.0000
  H   H6        1.0  0.18440019320462653  0.2350799541850788  0.5991875607499499  1.0000
  H   H7        1.0  0.8949150031793954  0.12203057488541647  0.5452296458087385  1.0000
  H   H8        1.0  0.8949133541128165  0.704807402586144  0.5479973260412496  1.0000
  H   H9        1.0  0.1293140089593254  0.9082589648315561  0.5912716529530957  1.0000
  H   H10       1.0  0.051626182744237  0.4635647546861502  0.5754370881959426  1.0000
  H   H11       1.0  0.6425697655934371  0.014649618046496782  0.4297803711951842  1.0000
  H   H12       1.0  0.584614555423142  0.2598679286256091  0.7363066883892931  1.0000
  H   H13       1.0  0.7161567841578387  0.18683200573024525  0.8521923530107102  1.0000
  H   H14       1.0  0.8110365137899225  0.02761470394489108  0.7596039185088335  1.0000
  C   C26       1.0  0.017439973894868063  0.41054766422457306  0.18901281538821513  1.0000
  C   C27       1.0  0.9369951128611644  0.3526728002875148  0.19206610627256793  1.0000
  C   C28       1.0  0.8960560291931728  0.324809393559609  0.07643328068865629  1.0000
  C   C29       1.0  0.9372337635950764  0.3528339673195018  0.9568125033028991  1.0000
  C   C30       1.0  0.01757229570179275  0.4107873988717838  0.9517469538408192  1.0000
  C   C31       1.0  0.05714231633010233  0.4395661915787272  0.06838434605397703  1.0000
  C   C32       1.0  0.8115388482245723  0.2623582002616618  0.0819901147527682  1.0000
  O   O3        1.0  0.794208990858971  0.1833225712556148  0.1778463824549437  1.0000
  C   C33       1.0  0.7466848702992981  0.28956191388945646  0.9788750511763921  1.0000
  C   C34       1.0  0.7401979068130768  0.41300447161084763  0.9109831372826763  1.0000
  C   C35       1.0  0.6781842580981483  0.4378079458778743  0.8150962517899809  1.0000
  C   C36       1.0  0.6211647277175064  0.3407125679764278  0.7858899094629548  1.0000
  C   C37       1.0  0.6267606561455528  0.21747252269031425  0.854697314299047  1.0000
  C   C38       1.0  0.6887666819409907  0.19254192088568  0.9506566012193223  1.0000
  O   O4        1.0  0.5601758095754684  0.3704859252795294  0.6887163995883401  1.0000
  C   C39       1.0  0.49837584930230167  0.28134192519468226  0.649170577031283  1.0000
  H   H15       1.0  0.16938390017983995  0.5192646142119239  0.3905598851850509  1.0000
  H   H16       1.0  0.9056176434348875  0.3302461530219689  0.2845087502058039  1.0000
  H   H17       1.0  0.906938393814139  0.3280572245820981  0.8676706252793265  1.0000
  H   H18       1.0  0.11911785510322409  0.48426886037874634  0.06520942831336929  1.0000
  H   H19       1.0  0.048533890084403425  0.4325352817500212  0.6223680400726934  1.0000
  H   H20       1.0  0.7824496437054795  0.4908338492461963  0.9329231754816629  1.0000
  H   H21       1.0  0.6741694782027159  0.5333114045787035  0.7635058535118737  1.0000
  H   H22       1.0  0.5835357870245649  0.14033873537672134  0.834851003027577  1.0000
  H   H23       1.0  0.6919581875608942  0.09686485639793463  0.002131344726481241  1.0000
  H   H24       1.0  0.45699324840626526  0.2495433361505968  0.7325999973546735  1.0000
  H   H25       1.0  0.529941538158055  0.19570155254243657  0.6106233028311312  1.0000
  Zn  Zn1       1.0  0.9246622241754324  0.41160166625699407  0.5701008999372527  1.0000
  Zn  Zn2       1.0  0.11034191959235556  0.40973286719249685  0.5706582315364837  1.0000
  C   C40       1.0  0.01754417083287785  0.4055682299968928  0.8075746390001591  1.0000
  C   C41       1.0  0.01746200095720285  0.41576792177005206  0.3331846257756865  1.0000
  C   C42       1.0  0.01755640760260846  0.6478674936236017  0.5651685627949072  1.0000
  C   C43       1.0  0.01744970047463768  0.17346709843829358  0.575590771266882  1.0000
  O   O5        1.0  0.08793386884677301  0.41680502241803263  0.3817815076684232  1.0000
  O   O6        1.0  0.08799889513480558  0.4031117742211312  0.7594003852005793  1.0000
  O   O7        1.0  0.08800782682051284  0.5987715038769252  0.5636557605445823  1.0000
  O   O8        1.0  0.08792487378644792  0.22114530265991703  0.5775260347586304  1.0000
  O   O9        1.0  0.9470792066179723  0.6001892314287144  0.5632330965180846  1.0000
  O   O10       1.0  0.9470702752817315  0.4045310621171123  0.7589776516911166  1.0000
  O   O11       1.0  0.9470052487686063  0.41822426456489586  0.3813572127729317  1.0000
  O   O12       1.0  0.9469962537195311  0.22256453554824396  0.5771018372319079  1.0000
