data_image0
_chemical_formula_structural       NC5OC5NC4H8C6NH7C6OCH6Zn2C4O8
_chemical_formula_sum              "N3 C31 O10 H21 Zn2"
_cell_length_a       19.189071930511275
_cell_length_b       9.274771166103582
_cell_length_c       9.273891588657152
_cell_angle_alpha    85.97469330815719
_cell_angle_beta     89.6582401659116
_cell_angle_gamma    90.58817672672019

_space_group_name_H-M_alt    "P 1"
_space_group_IT_number       1

loop_
  _space_group_symop_operation_xyz
  'x, y, z'

loop_
  _atom_site_type_symbol
  _atom_site_label
  _atom_site_symmetry_multiplicity
  _atom_site_fract_x
  _atom_site_fract_y
  _atom_site_fract_z
  _atom_site_occupancy
  N   N1        1.0  0.6683920849596646  0.5641063936317117  0.40670355914147893  1.0000
  C   C1        1.0  0.614247243299366  0.6151468554362811  0.38630838306751025  1.0000
  C   C2        1.0  0.5468980315133651  0.6786326815895694  0.36093985043418075  1.0000
  C   C3        1.0  0.5380435399018991  0.785270779909681  0.2481819595451984  1.0000
  C   C4        1.0  0.47262108643864253  0.8470215280420236  0.22367893750475232  1.0000
  C   C5        1.0  0.41539775957266317  0.8020056023099273  0.310429821938613  1.0000
  O   O1        1.0  0.35083132856375115  0.8677672913124218  0.2834056445223754  1.0000
  C   C6        1.0  0.2854573223847228  0.8017894124819176  0.3098040057727023  1.0000
  C   C7        1.0  0.2290401870578377  0.8882713073200221  0.3432305931580588  1.0000
  C   C8        1.0  0.1628626363626485  0.8268461566560075  0.36867716797618355  1.0000
  C   C9        1.0  0.15244259033277904  0.6781257809281394  0.359471128792612  1.0000
  C   C10       1.0  0.08431627734503143  0.6148675659202907  0.38549905462514933  1.0000
  N   N2        1.0  0.02954672504093441  0.5640101634389567  0.4064248371216106  1.0000
  C   C11       1.0  0.20839040477616896  0.5912822732254086  0.32391709847760053  1.0000
  C   C12       1.0  0.2745591879000454  0.6527516682037509  0.298518873405899  1.0000
  C   C13       1.0  0.42473470776891337  0.6963862799110003  0.4249820838028038  1.0000
  C   C14       1.0  0.49014804442866683  0.6346315877543216  0.4495532364662147  1.0000
  H   H1        1.0  0.5816563088598158  0.8207624301269247  0.1794239491746683  1.0000
  H   H2        1.0  0.466237231085221  0.9295809040376533  0.1364344587895272  1.0000
  H   H3        1.0  0.23663586191905783  0.0033787482470652983  0.3503183326967265  1.0000
  H   H4        1.0  0.1198867066663658  0.8952492237649494  0.39530452329494636  1.0000
  H   H5        1.0  0.2007937044457979  0.47632916714765194  0.31508114942440013  1.0000
  H   H6        1.0  0.3168372303648218  0.5845462118327085  0.2681022654615528  1.0000
  H   H7        1.0  0.3818358633509491  0.6633376012828014  0.49645845112255144  1.0000
  H   H8        1.0  0.496541102138943  0.55324698832073  0.5380069943849004  1.0000
  C   C15       1.0  0.8468311763309894  0.14046940718529521  0.4073514826112534  1.0000
  C   C16       1.0  0.8311369514683123  0.2226189694229286  0.2784675872498208  1.0000
  C   C17       1.0  0.8219513815898151  0.15640127995664077  0.1487608791960311  1.0000
  C   C18       1.0  0.8284990620303319  0.006648065002500482  0.14699850723007923  1.0000
  C   C19       1.0  0.8429093361715293  0.9231634353481508  0.27411273925530644  1.0000
  C   C20       1.0  0.8511142449779767  0.9876362363264661  0.405789407141832  1.0000
  N   N3        1.0  0.806689070859111  0.2416374390377041  0.018460008664116682  1.0000
  H   H9        1.0  0.9244224490060694  0.22295617965073802  0.7227397846171215  1.0000
  H   H10       1.0  0.827624674144599  0.3392076157099886  0.2779166266260109  1.0000
  H   H11       1.0  0.8217615220326523  0.9542618625929964  0.04720202696249265  1.0000
  H   H12       1.0  0.8459914270056621  0.8069613411319574  0.2699823416271334  1.0000
  H   H13       1.0  0.9005448811848455  0.6924938098985554  0.6203677137069634  1.0000
  H   H14       1.0  0.8018877909118158  0.35371219647868535  0.018416898839240362  1.0000
  H   H15       1.0  0.8000108505360392  0.1932898230176863  0.9210338912669309  1.0000
  C   C21       1.0  0.8500950274982866  0.560232242236042  0.9833012608602133  1.0000
  C   C22       1.0  0.9074727897871455  0.621143228796448  0.051718573388407796  1.0000
  C   C23       1.0  0.9609521246915999  0.692826421750314  0.9717356295606305  1.0000
  C   C24       1.0  0.9572454645714538  0.7039600226646492  0.8202773932882002  1.0000
  C   C25       1.0  0.9013273607983637  0.6421752376297654  0.7505183634326942  1.0000
  C   C26       1.0  0.8478503675373332  0.5678733103432736  0.8298395753383714  1.0000
  O   O2        1.0  0.01641776187447075  0.7519619175730363  0.04679059341676916  1.0000
  C   C27       1.0  0.07418778659910918  0.8278604759253347  0.9795299543226544  1.0000
  H   H16       1.0  0.6838889150200883  0.4716813922711869  0.09460978935140152  1.0000
  H   H17       1.0  0.9976678183701033  0.7590308998172817  0.7552227096280304  1.0000
  H   H18       1.0  0.7369811750069802  0.5025372596266702  0.554602766438324  1.0000
  H   H19       1.0  0.05597495576377099  0.9254779433299661  0.9149688236459714  1.0000
  H   H20       1.0  0.1028827974984734  0.756263669735227  0.9092268657300121  1.0000
  H   H21       1.0  0.11003470042104181  0.8623294979074202  0.06428239263811686  1.0000
  Zn  Zn1       1.0  0.7726134799882309  0.5640748506648627  0.4066314504816053  1.0000
  Zn  Zn2       1.0  0.9253252567073784  0.564030056782432  0.4065087524522266  1.0000
  C   C28       1.0  0.8482440609852981  0.5606825895019598  0.6698363228261268  1.0000
  C   C29       1.0  0.8496963521446282  0.5674241387585999  0.14330401688280836  1.0000
  C   C30       1.0  0.8503162882956519  0.8274517975270439  0.40034089297649733  1.0000
  C   C31       1.0  0.8476240637588609  0.30065319840418936  0.4127995268156288  1.0000
  O   O3        1.0  0.9075158446391258  0.5698145129094974  0.19695585178824615  1.0000
  O   O4        1.0  0.9063292691092526  0.5582571259013926  0.6160909500421876  1.0000
  O   O5        1.0  0.9080018336567295  0.7736766488960429  0.3984714815758401  1.0000
  O   O6        1.0  0.9058432283201945  0.3543949992733415  0.41457521220440374  1.0000
  O   O7        1.0  0.7920954562624082  0.7737099081907415  0.39856499076371454  1.0000
  O   O8        1.0  0.7904229006773384  0.5582921175422055  0.6161843791811572  1.0000
  O   O9        1.0  0.7916094805944385  0.5698494386420612  0.1970475480711511  1.0000
  O   O10       1.0  0.7899368639339549  0.354429915664199  0.4146670165717852  1.0000
