data_image0
_chemical_formula_structural       NC9NC3SH6C12H9C8H6Zn2C4O8
_chemical_formula_sum              "N2 C36 S1 H21 Zn2 O8"
_cell_length_a       16.77567553997237
_cell_length_b       10.299137764757564
_cell_length_c       9.275144076552241
_cell_angle_alpha    85.93860642642608
_cell_angle_beta     90.85075607413872
_cell_angle_gamma    90.9119803869589

_space_group_name_H-M_alt    "P 1"
_space_group_IT_number       1

loop_
  _space_group_symop_operation_xyz
  'x, y, z'

loop_
  _atom_site_type_symbol
  _atom_site_label
  _atom_site_symmetry_multiplicity
  _atom_site_fract_x
  _atom_site_fract_y
  _atom_site_fract_z
  _atom_site_occupancy
  N   N1        1.0  0.7439661859775618  0.4298478457202482  0.41723987458845424  1.0000
  C   C1        1.0  0.68943373321775  0.4794783232850473  0.46340285213606974  1.0000
  C   C2        1.0  0.6217581435309014  0.5410664614829969  0.520687575202541  1.0000
  C   C3        1.0  0.6243822863057759  0.6298453573643323  0.6261747106233659  1.0000
  C   C4        1.0  0.5489104299499624  0.6735484653599607  0.661141780535575  1.0000
  C   C5        1.0  0.4865457901946633  0.6189916357773622  0.5827741790738079  1.0000
  C   C6        1.0  0.4001144904433885  0.6451366447488973  0.5948124509459718  1.0000
  C   C7        1.0  0.3429920598254475  0.5651232428997763  0.530134332710255  1.0000
  C   C8        1.0  0.2614047930437646  0.5892500282728357  0.5410002649818477  1.0000
  C   C9        1.0  0.2036074061679319  0.5065577803142212  0.4747739933037325  1.0000
  N   N2        1.0  0.1571553767155114  0.4400850649229076  0.4215378559033458  1.0000
  C   C10       1.0  0.2361094021697869  0.6937026318258972  0.616365400337002  1.0000
  C   C11       1.0  0.2921379338873548  0.7738715468033837  0.680531112233036  1.0000
  C   C12       1.0  0.3735690821621915  0.7501101572763342  0.6699920886538469  1.0000
  S   S1        1.0  0.5266081590092542  0.516169641314042  0.47056819159220353  1.0000
  H   H1        1.0  0.679018552182185  0.6620375115595143  0.6769693585621961  1.0000
  H   H2        1.0  0.5410236507682372  0.741982275418943  0.7426911467180919  1.0000
  H   H3        1.0  0.36151206759288546  0.48344120850102873  0.47193668155277435  1.0000
  H   H4        1.0  0.173169499904968  0.7132214114624238  0.625338316496299  1.0000
  H   H5        1.0  0.27243557081662967  0.8549397156349224  0.738376514881526  1.0000
  H   H6        1.0  0.4152449765709438  0.8150779925673312  0.7196583695254861  1.0000
  C   C13       1.0  0.9504885568931228  0.05356576487120512  0.4195452668396844  1.0000
  C   C14       1.0  0.9497796462675264  0.062447913428777646  0.2677623002266669  1.0000
  C   C15       1.0  0.9494983188638642  0.9498207435491823  0.19064766277633116  1.0000
  C   C16       1.0  0.9499354361122914  0.8271940935901649  0.2673675480540769  1.0000
  C   C17       1.0  0.9506406812799493  0.8163574422290616  0.4192450647754882  1.0000
  C   C18       1.0  0.9509142365163452  0.9300548438404661  0.49439891640207717  1.0000
  C   C19       1.0  0.9487474172546865  0.9602620693381114  0.030076270233411636  1.0000
  C   C20       1.0  0.996487953832189  0.8786431702732035  0.9530304832348587  1.0000
  C   C21       1.0  0.9956820471341199  0.888719448018483  0.8018848101206788  1.0000
  C   C22       1.0  0.9473280295695693  0.9800357842737614  0.7260783423653119  1.0000
  C   C23       1.0  0.8996790724644526  0.06153092575682817  0.8012636430158654  1.0000
  C   C24       1.0  0.900284514760384  0.051944584223537746  0.9524082048889425  1.0000
  H   H7        1.0  0.9505479097212668  0.15722549557207577  0.209166993595296  1.0000
  H   H8        1.0  0.9486229540386397  0.7400228447483524  0.20847703385995753  1.0000
  H   H9        1.0  0.9514588528999351  0.9224882552598301  0.6114725787734326  1.0000
  H   H10       1.0  0.9514648335402169  0.5885997045605722  0.7059006374971522  1.0000
  H   H11       1.0  0.035165194079942674  0.8082900872720877  0.009617120172005224  1.0000
  H   H12       1.0  0.03274910978645429  0.8258598605158345  0.7434979232950244  1.0000
  H   H13       1.0  0.9467818549053019  0.9876459859855452  0.6090820523223099  1.0000
  H   H14       1.0  0.8620646237817108  0.1320176882749713  0.7423920736035012  1.0000
  H   H15       1.0  0.8621335983847747  0.11497038308278862  0.008489196842808916  1.0000
  C   C25       1.0  0.9486861141624585  0.432257323325836  0.9960911680061105  1.0000
  C   C26       1.0  0.8967196643975435  0.5156723576787995  0.061490823142166695  1.0000
  C   C27       1.0  0.851151979536834  0.6056810077147328  0.9780456020032591  1.0000
  C   C28       1.0  0.8567265781068436  0.6141187628612657  0.8276698263259803  1.0000
  C   C29       1.0  0.9070378143850337  0.530567473470065  0.7604971585258045  1.0000
  C   C30       1.0  0.9524431315384604  0.4376659205343039  0.8426991910329811  1.0000
  C   C31       1.0  0.8100016163750423  0.7076690208385833  0.7418412400588013  1.0000
  C   C32       1.0  0.7708835903372526  0.7859926163768371  0.6699664571150912  1.0000
  H   H16       1.0  0.11439762243834495  0.26586843545586075  0.11648640001125442  1.0000
  H   H17       1.0  0.8927311782989937  0.513390231323607  0.17812032214391138  1.0000
  H   H18       1.0  0.8121028480234433  0.6696533502793954  0.031052106857999192  1.0000
  H   H19       1.0  0.9093246410408182  0.5360210032025079  0.6434341999188034  1.0000
  H   H20       1.0  0.062287544856292516  0.3214698833537841  0.574074689975645  1.0000
  H   H21       1.0  0.7365460836338649  0.8547440186450175  0.6068738424641404  1.0000
  Zn  Zn1       1.0  0.8632037002091291  0.43279867164469144  0.41848851362162026  1.0000
  Zn  Zn2       1.0  0.03791790793889782  0.4371237193862787  0.4203010588840679  1.0000
  C   C33       1.0  0.9517301624952162  0.4314693958875737  0.682674128020216  1.0000
  C   C34       1.0  0.9493933544812209  0.43845468203336524  0.15611560511600686  1.0000
  C   C35       1.0  0.950582336951861  0.6721367809220036  0.41355752253651423  1.0000
  C   C36       1.0  0.9505411204366648  0.19778573558090787  0.42523228744743213  1.0000
  O   O1        1.0  0.015933840965548507  0.4421702390913583  0.21050912176242087  1.0000
  O   O2        1.0  0.01779371502933591  0.4310354675352215  0.6296558767202896  1.0000
  O   O3        1.0  0.016865944240485705  0.6253774120545939  0.4123423039433502  1.0000
  O   O4        1.0  0.01686155165848935  0.24782830169665696  0.4278225858352822  1.0000
  O   O5        1.0  0.8842599968681195  0.622094087859753  0.41096698604429016  1.0000
  O   O6        1.0  0.8851877676234636  0.42775370328384593  0.6282804813473902  1.0000
  O   O7        1.0  0.8833278859126865  0.43888841850967386  0.20913199331660912  1.0000
  O   O8        1.0  0.8842555970801188  0.2445464725157398  0.42644556546743306  1.0000
