data_image0
_chemical_formula_structural       NC5OC5NC4H8C9H10C6NCOH5Zn2C4O8
_chemical_formula_sum              "N3 C34 O10 H23 Zn2"
_cell_length_a       19.189071930511275
_cell_length_b       10.297183801781406
_cell_length_c       9.273733555595832
_cell_angle_alpha    86.14735742997276
_cell_angle_beta     89.98918376362916
_cell_angle_gamma    89.98878219536965

_space_group_name_H-M_alt    "P 1"
_space_group_IT_number       1

loop_
  _space_group_symop_operation_xyz
  'x, y, z'

loop_
  _atom_site_type_symbol
  _atom_site_label
  _atom_site_symmetry_multiplicity
  _atom_site_fract_x
  _atom_site_fract_y
  _atom_site_fract_z
  _atom_site_occupancy
  N   N1        1.0  0.6560358967468477  0.4061449657730159  0.4090428929851928  1.0000
  C   C1        1.0  0.6015760440912918  0.45207945662267424  0.3887203538463002  1.0000
  C   C2        1.0  0.5338350102081112  0.5092143055483734  0.36344216949084407  1.0000
  C   C3        1.0  0.524126567502697  0.6050765015737969  0.2508442540845981  1.0000
  C   C4        1.0  0.4583234811304339  0.6606501110012255  0.22642909092103247  1.0000
  C   C5        1.0  0.4015699244400807  0.6202434149987612  0.31310785794777596  1.0000
  O   O1        1.0  0.3365955421841778  0.6794253049774004  0.2861773550515674  1.0000
  C   C6        1.0  0.27162883352596856  0.6200477550526899  0.31248181753635396  1.0000
  C   C7        1.0  0.21486771620415682  0.6979829380636068  0.3460235165713419  1.0000
  C   C8        1.0  0.1490717858476495  0.6427040082066671  0.3713825701220266  1.0000
  C   C9        1.0  0.13937803241217453  0.5087555392266588  0.36197292222083477  1.0000
  C   C10       1.0  0.07164423122209133  0.4518266877636085  0.3879107358075726  1.0000
  N   N2        1.0  0.017190245397329208  0.4060578735745457  0.4087640711680618  1.0000
  C   C11       1.0  0.1956657188836928  0.4304914180180483  0.3263035317457088  1.0000
  C   C12       1.0  0.2614527929127067  0.4858102678171752  0.3009928831726856  1.0000
  C   C13       1.0  0.4117606810986862  0.5253014705592958  0.42750133631952053  1.0000
  C   C14       1.0  0.47755486078606113  0.4697244141958934  0.451984616697744  1.0000
  H   H1        1.0  0.5673679491511556  0.6369335660682616  0.1821431451736315  1.0000
  H   H2        1.0  0.45127864307883847  0.7348668486672284  0.13930845927473645  1.0000
  H   H3        1.0  0.22190114603607314  0.80165707678956  0.3532688507458732  1.0000
  H   H4        1.0  0.10582430895506952  0.7043473230398523  0.39810095120233874  1.0000
  H   H5        1.0  0.1886256033485606  0.32695357647506706  0.31731040523677456  1.0000
  H   H6        1.0  0.30399080626478214  0.4243390789496284  0.2704859652735101  1.0000
  H   H7        1.0  0.3692284592177886  0.4956486803504649  0.4989238460952987  1.0000
  H   H8        1.0  0.4846063365683913  0.39656751742770613  0.540316002775921  1.0000
  C   C15       1.0  0.8366188750801861  0.024627850499524546  0.40910767998584685  1.0000
  C   C16       1.0  0.834573060836332  0.03302168975537079  0.2574496944605238  1.0000
  C   C17       1.0  0.8335247691820619  0.9207056117144916  0.1797508736515696  1.0000
  C   C18       1.0  0.8345648415534386  0.7978449144369693  0.2568618907891571  1.0000
  C   C19       1.0  0.8366139702871279  0.7875651488758635  0.4087117009431822  1.0000
  C   C20       1.0  0.8376269492148087  0.9014231626614978  0.483843355196766  1.0000
  C   C21       1.0  0.8313118838080173  0.9392163364266707  0.015722053655318428  1.0000
  C   C22       1.0  0.7904989439695704  0.8397334002513325  0.9355247689302516  1.0000
  C   C23       1.0  0.869891112738028  0.8399781997196993  0.9308850917906802  1.0000
  H   H9        1.0  0.8374138100146606  0.3489318873940268  0.4675463611552284  1.0000
  H   H10       1.0  0.8337834100065269  0.1276845401162607  0.19890134472495566  1.0000
  H   H11       1.0  0.8337954285187845  0.7096949150726838  0.19993941870282694  1.0000
  H   H12       1.0  0.8392049885781908  0.8942196966297025  0.600850676008239  1.0000
  H   H13       1.0  0.8404749403158689  0.5609331185759181  0.6955132420265298  1.0000
  H   H14       1.0  0.8306012633358876  0.039422216520613285  0.9630003068794459  1.0000
  H   H15       1.0  0.7672508475353205  0.756735769779821  0.0011307136092535382  1.0000
  H   H16       1.0  0.7659039175118516  0.8796262034123103  0.8335751647192025  1.0000
  H   H17       1.0  0.8948694955261998  0.7571300787690042  0.9936734341271412  1.0000
  H   H18       1.0  0.8916973149046667  0.8800116972095159  0.8262224707100682  1.0000
  C   C24       1.0  0.8365765668223001  0.4020036771362349  0.9856848552586173  1.0000
  C   C25       1.0  0.7725265331741903  0.3945630855531408  0.05968964326244164  1.0000
  C   C26       1.0  0.7091101880868822  0.3976497764419437  0.9847875309138292  1.0000
  C   C27       1.0  0.7097252740214034  0.412399663253328  0.8334316659778076  1.0000
  C   C28       1.0  0.7727274613915248  0.4179020691560722  0.7582247005580318  1.0000
  C   C29       1.0  0.836656263781611  0.4101893010081185  0.8321345779543421  1.0000
  N   N3        1.0  0.644853595138866  0.39310907430404884  0.06485399674633263  1.0000
  C   C30       1.0  0.5820696075382757  0.3333043566755347  0.01815109859333597  1.0000
  O   O2        1.0  0.5817036015712999  0.2645579798187976  0.9108362285484932  1.0000
  H   H19       1.0  0.000793733210442628  0.49216604795121816  0.08182468862114689  1.0000
  H   H20       1.0  0.6615969298357759  0.42106038427013726  0.7728497264688232  1.0000
  H   H21       1.0  0.9478088442831857  0.4654244612408837  0.5469138326618803  1.0000
  H   H22       1.0  0.6446037989964544  0.427649557677991  0.16825526162650295  1.0000
  H   H23       1.0  0.5344385548611857  0.3442103272082311  0.07860306311866827  1.0000
  Zn  Zn1       1.0  0.7602572499891768  0.4061164477797476  0.4089707493580703  1.0000
  Zn  Zn2       1.0  0.9129689107116621  0.4060759183642102  0.40884800404940114  1.0000
  C   C31       1.0  0.8366396791212487  0.40346695807925304  0.6721401239730316  1.0000
  C   C32       1.0  0.8365881491889322  0.40872704805963855  0.14567876869954643  1.0000
  C   C33       1.0  0.8366107597859557  0.6432982176198636  0.4030434199424935  1.0000
  C   C34       1.0  0.8366170164317028  0.16889422854487737  0.41477555041965397  1.0000
  O   O3        1.0  0.8945453157541793  0.4109624247610584  0.19932760934903904  1.0000
  O   O4        1.0  0.8945871295043208  0.4011998364856042  0.6183977081066683  1.0000
  O   O5        1.0  0.8945629956785133  0.5948666263444105  0.40110021562512777  1.0000
  O   O6        1.0  0.8945693974596064  0.2172956431638382  0.4166249938059261  1.0000
  O   O7        1.0  0.7786567111282365  0.5948967229952913  0.4011937596358503  1.0000
  O   O8        1.0  0.7786808449335706  0.40123149312580786  0.6184911744621269  1.0000
  O   O9        1.0  0.7786390310669165  0.41099401937602903  0.19941934296068983  1.0000
  O   O10       1.0  0.7786631127797279  0.2173272295323947  0.4167168354765358  1.0000
