data_image0
_chemical_formula_structural       NC9NC3OH6C7F3H5C8NH11Zn2C4O8
_chemical_formula_sum              "N3 C31 O9 H22 F3 Zn2"
_cell_length_a       15.78231758774541
_cell_length_b       9.272718291674593
_cell_length_c       9.275652972338538
_cell_angle_alpha    86.37424905988952
_cell_angle_beta     90.52078220685846
_cell_angle_gamma    89.20559360488726

_space_group_name_H-M_alt    "P 1"
_space_group_IT_number       1

loop_
  _space_group_symop_operation_xyz
  'x, y, z'

loop_
  _atom_site_type_symbol
  _atom_site_label
  _atom_site_symmetry_multiplicity
  _atom_site_fract_x
  _atom_site_fract_y
  _atom_site_fract_z
  _atom_site_occupancy
  N   N1        1.0  0.7840437521230277  0.5586606278162591  0.4244904536304088  1.0000
  C   C1        1.0  0.7360250745755433  0.4677236688472497  0.4505322352599386  1.0000
  C   C2        1.0  0.6764079533048689  0.354848801103409  0.4828568051732977  1.0000
  C   C3        1.0  0.696870585167649  0.2130591969372435  0.5233735338521688  1.0000
  C   C4        1.0  0.6205281046614882  0.1443429495272099  0.5430922740635797  1.0000
  C   C5        1.0  0.5581555303720664  0.2492837862023303  0.5131510764258875  1.0000
  C   C6        1.0  0.4651744374674486  0.22988250053815087  0.5187886014434002  1.0000
  C   C7        1.0  0.4107575070239373  0.34884488534326574  0.4846633252819468  1.0000
  C   C8        1.0  0.3226411624330262  0.3329363486053494  0.48929390859964017  1.0000
  C   C9        1.0  0.26750814685041535  0.4553599453949029  0.45416658676822275  1.0000
  N   N2        1.0  0.2231941799614463  0.553772713004906  0.4259273229604996  1.0000
  C   C10       1.0  0.28826147097479593  0.19788838310234078  0.5281028140460358  1.0000
  C   C11       1.0  0.34174610137931416  0.07917198155098326  0.5621623732815484  1.0000
  C   C12       1.0  0.42967925378955013  0.09464347596413458  0.5576575877858438  1.0000
  O   O1        1.0  0.5939119697770828  0.37365160579780254  0.4775586913743633  1.0000
  H   H1        1.0  0.7596005455695691  0.1652422838751777  0.5369807880835933  1.0000
  H   H2        1.0  0.6124335683869954  0.031354628424840485  0.5753958905070409  1.0000
  H   H3        1.0  0.4367692174441816  0.4539361139419993  0.45445787476544725  1.0000
  H   H4        1.0  0.2202215145673703  0.18441466367142725  0.5320223215399924  1.0000
  H   H5        1.0  0.31500001810307077  0.9747992142289195  0.5921617938287849  1.0000
  H   H6        1.0  0.46929677990185814  0.0006117858668928146  0.5846443141992821  1.0000
  C   C13       1.0  0.005454288440157381  0.1327922911262871  0.4220307945925881  1.0000
  C   C14       1.0  0.9533607872156636  0.21401902100161707  0.32224708238536426  1.0000
  C   C15       1.0  0.8953218939831709  0.14654361990794906  0.23381711380515258  1.0000
  C   C16       1.0  0.8916091862436422  0.9953525882120433  0.24223196709122805  1.0000
  C   C17       1.0  0.9437522203753497  0.9131453969137684  0.3388967787527939  1.0000
  C   C18       1.0  0.0017918171085591354  0.9796299601461671  0.42839941776128887  1.0000
  C   C19       1.0  0.8416464848862546  0.2353240021769112  0.12485816844497342  1.0000
  F   F1        1.0  0.8201048311925689  0.36733309244938583  0.1771731201212121  1.0000
  F   F2        1.0  0.7675451372084389  0.16454708731258028  0.09450090403788813  1.0000
  F   F3        1.0  0.8867988807742007  0.2587597918334277  0.9987445181528463  1.0000
  H   H7        1.0  0.10744479289661774  0.21242917224629543  0.7334394100216273  1.0000
  H   H8        1.0  0.9567134209096588  0.33090570065972075  0.315549316194323  1.0000
  H   H9        1.0  0.8489475179673677  0.9402715939447348  0.17277815038100108  1.0000
  H   H10       1.0  0.9403023453310864  0.7964276663295523  0.3408248291832403  1.0000
  H   H11       1.0  0.18446743621613015  0.862842396713784  0.6024833795059712  1.0000
  C   C20       1.0  0.0017487782413536659  0.5534218626176586  0.0019170399932848523  1.0000
  C   C21       1.0  0.946377813270173  0.6483520806021763  0.0685936483258176  1.0000
  C   C22       1.0  0.8976612271115897  0.7516217447197433  0.9865082511854846  1.0000
  C   C23       1.0  0.9031769911336932  0.7585848134666919  0.8357938507938858  1.0000
  C   C24       1.0  0.956681929607397  0.6637395463199038  0.7677035432322579  1.0000
  C   C25       1.0  0.005497367600845403  0.55900040482121  0.8485131172793006  1.0000
  C   C26       1.0  0.8377603762360035  0.8509294652637598  0.05959924047176935  1.0000
  C   C27       1.0  0.7509374710348056  0.7814484195228162  0.07957170555385074  1.0000
  N   N3        1.0  0.6930434970169813  0.8795306744084277  0.1483243612684899  1.0000
  H   H12       1.0  0.06478612946303097  0.3385015604643593  0.29711640843913667  1.0000
  H   H13       1.0  0.942364440703267  0.6443852989168084  0.1853778216023425  1.0000
  H   H14       1.0  0.8652668039797689  0.8366685437612428  0.770671788779488  1.0000
  H   H15       1.0  0.9581850367027079  0.6699151737248468  0.6507352466640306  1.0000
  H   H16       1.0  0.1222761418341034  0.42564316703960503  0.5774200252029069  1.0000
  H   H17       1.0  0.8641881842426453  0.8759699224876034  0.16659090646677455  1.0000
  H   H18       1.0  0.8305262322554349  0.9551054599137455  0.9940504263418708  1.0000
  H   H19       1.0  0.7245492510118805  0.7575659916136404  0.9721717437252647  1.0000
  H   H20       1.0  0.7573658227291429  0.6781109140337009  0.1470073091674402  1.0000
  H   H21       1.0  0.6334017662547592  0.8317762519012919  0.15216721837667935  1.0000
  H   H22       1.0  0.7128549789484858  0.8865268010527186  0.2555634878857369  1.0000
  Zn  Zn1       1.0  0.9107731292655341  0.5572462844741075  0.42491339144226425  1.0000
  Zn  Zn2       1.0  0.09646487739783888  0.5551753656657386  0.4255160801629003  1.0000
  C   C28       1.0  0.0048117342660809435  0.552201747862795  0.6884451326633059  1.0000
  C   C29       1.0  0.002428292903553732  0.5602216999133398  0.16198450068583403  1.0000
  C   C30       1.0  0.0024543182830241146  0.8195218179626318  0.4214514111461951  1.0000
  C   C31       1.0  0.004785653355518389  0.2928998986615845  0.4289782858201576  1.0000
  O   O2        1.0  0.07312542211284656  0.5617115940007942  0.21593327264965656  1.0000
  O   O3        1.0  0.07505034814173994  0.5491389838219225  0.6349533643646836  1.0000
  O   O4        1.0  0.07314576160191975  0.7650033416220421  0.4193540534065927  1.0000
  O   O5        1.0  0.07502994476548291  0.34584724650985854  0.4315324753992573  1.0000
  O   O6        1.0  0.9322079985303697  0.7665744043382101  0.41889699599266894  1.0000
  O   O7        1.0  0.9341125772337612  0.5507117783982316  0.6344962431203085  1.0000
  O   O8        1.0  0.9321876438048504  0.5632843269100922  0.21547441796065714  1.0000
  O   O9        1.0  0.9340921669771499  0.347419969818195  0.4310737287055102  1.0000
