data_image0
_chemical_formula_structural       NC5NC3BrH3C9H10C6NCH7Zn2C4O8
_chemical_formula_sum              "N3 C28 Br1 H20 Zn2 O8"
_cell_length_a       13.839083392302014
_cell_length_b       10.297183801781404
_cell_length_c       9.273390368590327
_cell_angle_alpha    86.14107260812962
_cell_angle_beta     89.99157220175844
_cell_angle_gamma    90.02359494799444

_space_group_name_H-M_alt    "P 1"
_space_group_IT_number       1

loop_
  _space_group_symop_operation_xyz
  'x, y, z'

loop_
  _atom_site_type_symbol
  _atom_site_label
  _atom_site_symmetry_multiplicity
  _atom_site_fract_x
  _atom_site_fract_y
  _atom_site_fract_z
  _atom_site_occupancy
  N   N1        1.0  0.9100259906374265  0.40701627873855006  0.4094545679132471  1.0000
  C   C1        1.0  0.8380248141935805  0.34970637699663487  0.41194772638583355  1.0000
  C   C2        1.0  0.7483172191605358  0.27839304286759226  0.4150499198435471  1.0000
  C   C3        1.0  0.6607590310298377  0.34701195590646394  0.41206513036108583  1.0000
  C   C4        1.0  0.5727140168576298  0.2797192449010306  0.41499217262630195  1.0000
  C   C5        1.0  0.4829533550329692  0.35045561362576705  0.4119151170338706  1.0000
  N   N2        1.0  0.41079743058800167  0.4073221067195336  0.40944120853789867  1.0000
  C   C6        1.0  0.572161364798261  0.14352710965731985  0.42091625407567346  1.0000
  C   C7        1.0  0.6592745097746529  0.07479899289986558  0.42390570234974145  1.0000
  C   C8        1.0  0.7475155676666877  0.14144862741746  0.42100665278677374  1.0000
  Br  Br1       1.0  0.8649209009872699  0.042311068213778176  0.4253190241828868  1.0000
  H   H1        1.0  0.6611321991614086  0.45254933237722517  0.4074742692187274  1.0000
  H   H2        1.0  0.50446817378311  0.0905297022409326  0.4232212659619399  1.0000
  H   H3        1.0  0.6581381391475082  0.9694860258869383  0.4284864246616007  1.0000
  C   C9        1.0  0.16041969409995827  0.02569557965706815  0.4096521214130948  1.0000
  C   C10       1.0  0.1576188595438155  0.034102229607982475  0.2579858981448677  1.0000
  C   C11       1.0  0.1561836865902357  0.9217927146854686  0.18028285678082434  1.0000
  C   C12       1.0  0.15760760180038091  0.7989255036264681  0.2573980623320249  1.0000
  C   C13       1.0  0.16041298682016958  0.7886329119572804  0.4092561211828356  1.0000
  C   C14       1.0  0.16179980270428884  0.9024845787331657  0.4843918560466258  1.0000
  C   C15       1.0  0.15315411889726668  0.9403172948592086  0.01624512694219527  1.0000
  C   C16       1.0  0.09658245667329311  0.8407979169490803  0.9360142759764276  1.0000
  C   C17       1.0  0.2066675747933091  0.841129532378221  0.9314327615237415  1.0000
  H   H4        1.0  0.1615081206483031  0.34999468737785877  0.46809398171366357  1.0000
  H   H5        1.0  0.15653778579039734  0.12877002576314078  0.19943436829363126  1.0000
  H   H6        1.0  0.15655420501725592  0.7107803108736225  0.20047249719832116  1.0000
  H   H7        1.0  0.1639602210644118  0.8952712286011597  0.6014055321929557  1.0000
  H   H8        1.0  0.1656987333438713  0.5619766466808551  0.6960732349262679  1.0000
  H   H9        1.0  0.1521812497039694  0.040527629038022775  0.9635205168566987  1.0000
  H   H10       1.0  0.06433147248578708  0.7577684947744369  0.0016060417100256554  1.0000
  H   H11       1.0  0.06250345976981374  0.8806740754336154  0.8340420630351701  1.0000
  H   H12       1.0  0.24128738819128978  0.7583023556840137  0.9942422556571908  1.0000
  H   H13       1.0  0.23692848493894902  0.8811971254317661  0.8267815251846438  1.0000
  C   C18       1.0  0.16046115412965722  0.40311334004096544  0.9862104654489169  1.0000
  C   C19       1.0  0.2492091704264943  0.40058642066824707  0.059811930618328894  1.0000
  C   C20       1.0  0.33640911536182627  0.4101344669486737  0.9843898952480249  1.0000
  C   C21       1.0  0.3370765877179427  0.42256270951397135  0.8327554386006542  1.0000
  C   C22       1.0  0.2489175560934549  0.4228992280926503  0.7583454928227957  1.0000
  C   C23       1.0  0.16037153294672635  0.41121517227544246  0.8326977973202059  1.0000
  N   N3        1.0  0.4259096854668161  0.43360747403979466  0.7519591003910557  1.0000
  C   C24       1.0  0.5213143972902607  0.43381883964658546  0.8189446813709114  1.0000
  H   H14       1.0  0.007946125381719456  0.34062021323775316  0.2720869037956437  1.0000
  H   H15       1.0  0.40298531426142836  0.4089797798237771  0.045509749437641966  1.0000
  H   H16       1.0  0.9351836528936788  0.31015584189842516  0.7372650822922489  1.0000
  H   H17       1.0  0.4227743884248003  0.44221486473749727  0.6390788819825  1.0000
  H   H18       1.0  0.527584773715241  0.51715458692055  0.888369798383207  1.0000
  H   H19       1.0  0.5331017976410395  0.3409684677814713  0.8845465015659727  1.0000
  H   H20       1.0  0.5779414084446219  0.4436739824635849  0.7340475115058047  1.0000
  Zn  Zn1       1.0  0.05453781304919202  0.40710113091224875  0.4094590440544714  1.0000
  Zn  Zn2       1.0  0.26628559915847494  0.4072267202618796  0.409448566077508  1.0000
  C   C25       1.0  0.16038634310776748  0.40450863181805663  0.6726962594344141  1.0000
  C   C26       1.0  0.16043938134971247  0.4098208611510805  0.1462114911948733  1.0000
  C   C27       1.0  0.16040987552770855  0.6443665391843403  0.40358758614800205  1.0000
  C   C28       1.0  0.1604157766806702  0.16996139374628144  0.41532024213600605  1.0000
  O   O1        1.0  0.24078925555142594  0.4121139597157648  0.19990532366635883  1.0000
  O   O2        1.0  0.24074813910531925  0.4023098687012252  0.6189940600347115  1.0000
  O   O3        1.0  0.24076605842007948  0.5959981760180226  0.40168690171998866  1.0000
  O   O4        1.0  0.24077126399285212  0.2184256606145716  0.41721237391331245  1.0000
  O   O5        1.0  0.08005207595568821  0.5959021905180415  0.40169523621466063  1.0000
  O   O6        1.0  0.08003415663090284  0.4022154431982432  0.6190023168706567  1.0000
  O   O7        1.0  0.08007527332518505  0.4120194723592144  0.1999118476814754  1.0000
  O   O8        1.0  0.08005728175129855  0.21833116500090102  0.4172190059921923  1.0000
