data_image0
_chemical_formula_structural       NC6NSH2C4OC8H10C2H4Zn2C4O8
_chemical_formula_sum              "N2 C24 S1 H16 O9 Zn2"
_cell_length_a       14.474562073675546
_cell_length_b       15.444553060097464
_cell_length_c       8.961686928905086
_cell_angle_alpha    85.67058005490789
_cell_angle_beta     82.78122407664088
_cell_angle_gamma    90.01628193322479

_space_group_name_H-M_alt    "P 1"
_space_group_IT_number       1

loop_
  _space_group_symop_operation_xyz
  'x, y, z'

loop_
  _atom_site_type_symbol
  _atom_site_label
  _atom_site_symmetry_multiplicity
  _atom_site_fract_x
  _atom_site_fract_y
  _atom_site_fract_z
  _atom_site_occupancy
  N   N1        1.0  0.9994234687889137  0.9459330804556721  0.33950430367758844  1.0000
  C   C1        1.0  0.9220938157290616  0.9309177686580294  0.33038521047398284  1.0000
  C   C2        1.0  0.8261251867783718  0.9122851449682174  0.3190690682201802  1.0000
  C   C3        1.0  0.7923394911018451  0.8359146646262537  0.2726868864170451  1.0000
  C   C4        1.0  0.6956234322708839  0.8359147477321407  0.27268652691553963  1.0000
  C   C5        1.0  0.6546670538951007  0.9122852346117754  0.3190685209879811  1.0000
  C   C6        1.0  0.5569489035045159  0.9309179118056647  0.3303849346200054  1.0000
  N   N2        1.0  0.4782094353965134  0.9459331503565861  0.3395041856390937  1.0000
  S   S1        1.0  0.7372151921740979  0.980040827626423  0.36021904617837164  1.0000
  H   H1        1.0  0.8359616305739291  0.7819063609910704  0.23988616199127644  1.0000
  H   H2        1.0  0.6570723397248739  0.7819065516144798  0.2398853995452637  1.0000
  C   C7        1.0  0.2387090711266357  0.6915904735861031  0.3398475841643145  1.0000
  C   C8        1.0  0.2792369894275267  0.6181632235490073  0.40670004989216424  1.0000
  C   C9        1.0  0.237433526138505  0.5362865065824551  0.4104789912698523  1.0000
  C   C10       1.0  0.15474270542474494  0.5263199226954492  0.3461534698874431  1.0000
  O   O1        1.0  0.11016606229371284  0.4454196769868164  0.34937337221385323  1.0000
  C   C11       1.0  0.15484859521825378  0.3648850257860773  0.3457258141190134  1.0000
  C   C12       1.0  0.10710560915576894  0.29133377206086764  0.41704941494849135  1.0000
  C   C13       1.0  0.14876089456993477  0.2097108399763161  0.4146409316449031  1.0000
  C   C14       1.0  0.23893162744202096  0.20026907567118513  0.33917391423869425  1.0000
  C   C15       1.0  0.28629346192060356  0.2740872863648059  0.2655018520032226  1.0000
  C   C16       1.0  0.244473853912563  0.35562464009893374  0.2681447539428701  1.0000
  C   C17       1.0  0.11355104762017598  0.5995054607572701  0.2816729531711859  1.0000
  C   C18       1.0  0.15520832185936156  0.6814605105029329  0.2776848782294603  1.0000
  H   H3        1.0  0.3967590879812538  0.8464980429150043  0.39597435653473445  1.0000
  H   H4        1.0  0.3430104828429465  0.6239394496451423  0.4568544962623043  1.0000
  H   H5        1.0  0.2689128308031101  0.4810777503378511  0.46548425642003827  1.0000
  H   H6        1.0  0.03754024214382534  0.2975539427569543  0.47544358769709794  1.0000
  H   H7        1.0  0.11025563751909151  0.15408318763448184  0.4717462624610027  1.0000
  H   H8        1.0  0.2647245701780301  0.981575433217977  0.4088224202253319  1.0000
  H   H9        1.0  0.3554749972384895  0.26881860639822075  0.20512940162378723  1.0000
  H   H10       1.0  0.2815266323453034  0.41111074427087013  0.20786638782242783  1.0000
  H   H11       1.0  0.04918956394604732  0.5927428008465746  0.23357980675583387  1.0000
  H   H12       1.0  0.12197453182964901  0.7368226162697143  0.22610780560800992  1.0000
  C   C19       1.0  0.27318624484577725  0.9454102329878842  0.8977757704467404  1.0000
  C   C20       1.0  0.20445445402951182  0.9464492932123342  0.7812457100999652  1.0000
  H   H13       1.0  0.31997054720642426  0.0032666504458787023  0.8747044212875008  1.0000
  H   H14       1.0  0.31689239395493507  0.8862808768386099  0.890502466917841  1.0000
  H   H15       1.0  0.16094543196679265  0.005670581479630292  0.78842058177927  1.0000
  H   H16       1.0  0.15747832370917303  0.8886908265251217  0.8043899262421701  1.0000
  Zn  Zn1       1.0  0.13759008297019187  0.9459307844996003  0.3395129663155063  1.0000
  Zn  Zn2       1.0  0.3400418539643309  0.94592834729319  0.33950787784507375  1.0000
  C   C21       1.0  0.21744268647939946  0.942802476445157  0.6142555874708142  1.0000
  C   C22       1.0  0.2601914502141205  0.9490577483231543  0.06476540282983612  1.0000
  C   C23       1.0  0.2393511735619584  0.10411094166506765  0.3333069433018325  1.0000
  C   C24       1.0  0.23828288735435477  0.7877482426011035  0.34571412857686346  1.0000
  O   O2        1.0  0.3326596687793923  0.950277184285651  0.12080672288264505  1.0000
  O   O3        1.0  0.2986307110856381  0.9415805367933762  0.5582099732306296  1.0000
  O   O4        1.0  0.31632093409310214  0.07183916433453019  0.3313419541393201  1.0000
  O   O5        1.0  0.31496938546618103  0.8200185628085107  0.34767462917958736  1.0000
  O   O6        1.0  0.16266248238210432  0.07184056898604488  0.33134621497481564  1.0000
  O   O7        1.0  0.14497226606560942  0.9415829819487957  0.5582141524819022  1.0000
  O   O8        1.0  0.17900136450839543  0.9502795971318456  0.12080909362237378  1.0000
  O   O9        1.0  0.16131107241469397  0.8200209695924562  0.3476771127075069  1.0000
