data_image0
_chemical_formula_structural       NC5NC3OH4C7NH5C6NH7Zn2C4O8
_chemical_formula_sum              "N4 C25 O9 H16 Zn2"
_cell_length_a       13.84702359539666
_cell_length_b       9.275154477615127
_cell_length_c       9.274774538082516
_cell_angle_alpha    85.29330631285735
_cell_angle_beta     90.33539993850698
_cell_angle_gamma    89.43463511314383

_space_group_name_H-M_alt    "P 1"
_space_group_IT_number       1

loop_
  _space_group_symop_operation_xyz
  'x, y, z'

loop_
  _atom_site_type_symbol
  _atom_site_label
  _atom_site_symmetry_multiplicity
  _atom_site_fract_x
  _atom_site_fract_y
  _atom_site_fract_z
  _atom_site_occupancy
  N   N1        1.0  0.8923565444392616  0.5917333010342734  0.41403180126368455  1.0000
  C   C1        1.0  0.8205313386511277  0.5825168959115752  0.47713238000495345  1.0000
  C   C2        1.0  0.7310819790156524  0.5710405252050981  0.5557058960067596  1.0000
  C   C3        1.0  0.6431142337602369  0.5821274330115058  0.47979823895333423  1.0000
  C   C4        1.0  0.5556319754204053  0.5711693447938688  0.5548235559921373  1.0000
  C   C5        1.0  0.4653859837622513  0.5825841708244834  0.4766715078585129  1.0000
  N   N2        1.0  0.39283986716707503  0.5917608125690916  0.41384349178751534  1.0000
  C   C6        1.0  0.5561132504926816  0.549091286692456  0.7059820506194796  1.0000
  C   C7        1.0  0.6437011135890232  0.5379940675342003  0.7819577810724281  1.0000
  C   C8        1.0  0.731501250689464  0.5488815227289843  0.7074174582325077  1.0000
  O   O1        1.0  0.8188101449721861  0.5377653434657579  0.7835246774191282  1.0000
  H   H1        1.0  0.6427459626997422  0.5992317306772188  0.3626936444922928  1.0000
  H   H2        1.0  0.48885693216558507  0.5404666947297836  0.7650304274009241  1.0000
  H   H3        1.0  0.6432898600192247  0.5209236894497058  0.8988308170945482  1.0000
  H   H4        1.0  0.8208949915939442  0.5217890648075825  0.8929061246458376  1.0000
  C   C9        1.0  0.14539046588938875  0.16837244199007273  0.41226655594561357  1.0000
  C   C10       1.0  0.11835492623441413  0.25265717942347266  0.2850320617170846  1.0000
  C   C11       1.0  0.08349223154903299  0.18766533016456233  0.1645408528533805  1.0000
  C   C12       1.0  0.07509338918176556  0.03749804520593503  0.16986515359408963  1.0000
  C   C13       1.0  0.10301196042755548  0.9520309176188319  0.29419887462913136  1.0000
  C   C14       1.0  0.13981529830765038  0.015110483806477944  0.41562117509709795  1.0000
  C   C15       1.0  0.05516552538930264  0.2755451528520019  0.035773214458001856  1.0000
  N   N3        1.0  0.03239869963316199  0.34618433767466583  0.9322770164999762  1.0000
  H   H5        1.0  0.16558446693133688  0.2419623526436279  0.7665061599900702  1.0000
  H   H6        1.0  0.12228110606722975  0.3696540533536478  0.28074850196445406  1.0000
  H   H7        1.0  0.04778464208938038  0.9861758003487681  0.07726028578244784  1.0000
  H   H8        1.0  0.09794034542626928  0.8355641478836962  0.2940737758950281  1.0000
  H   H9        1.0  0.15750573376086519  0.7142760110176685  0.6529702205601353  1.0000
  C   C16       1.0  0.14084546591155145  0.5954288047171638  0.9901427900676981  1.0000
  C   C17       1.0  0.2087146519353038  0.6805120180851003  0.05719060947576971  1.0000
  C   C18       1.0  0.2809945657966866  0.7537193102995443  0.9766883215387474  1.0000
  C   C19       1.0  0.2859924141804666  0.7421754248820986  0.8276633187991975  1.0000
  C   C20       1.0  0.21841214986011798  0.6602682238559809  0.7589254027534946  1.0000
  C   C21       1.0  0.14436028453871685  0.5880540593740138  0.8377448941662391  1.0000
  N   N4        1.0  0.3499737309102023  0.8386020079812428  0.046740174203328655  1.0000
  H   H10       1.0  0.9983489621006014  0.31358721148962587  0.11500087543556714  1.0000
  H   H11       1.0  0.20693127911555087  0.6873496727663311  0.17323848259440933  1.0000
  H   H12       1.0  0.3418033078888621  0.797881336065002  0.7643320861809428  1.0000
  H   H13       1.0  0.22274490858580243  0.6562581081533801  0.6427348444279152  1.0000
  H   H14       1.0  0.04538905991692066  0.402612727898614  0.5709661688550272  1.0000
  H   H15       1.0  0.347109842533324  0.8476429162236907  0.1581469710502217  1.0000
  H   H16       1.0  0.4043981985047938  0.8931740893042552  0.9876936591755788  1.0000
  Zn  Zn1       1.0  0.036785278537884165  0.5917373082497719  0.4139857654941004  1.0000
  Zn  Zn2       1.0  0.24841123552231537  0.5917449061255351  0.41390125885156315  1.0000
  C   C22       1.0  0.14373157660011346  0.5837045450109435  0.6775071954855424  1.0000
  C   C23       1.0  0.14146723701882397  0.5997794873191844  0.1503799767928844  1.0000
  C   C24       1.0  0.14084030042812296  0.8551089880352601  0.40923607159608166  1.0000
  C   C25       1.0  0.14435845270179004  0.32837331146171445  0.41865117079107783  1.0000
  O   O2        1.0  0.22198689827385998  0.6012362097077661  0.20412494569354211  1.0000
  O   O3        1.0  0.22383112544349038  0.5822525052154677  0.6236976682484467  1.0000
  O   O4        1.0  0.22149530696222697  0.8014150122399153  0.40706684401635823  1.0000
  O   O5        1.0  0.224322644024894  0.3820737139357031  0.4207556617864894  1.0000
  O   O6        1.0  0.06087379781771075  0.8014085004386468  0.40713136258042715  1.0000
  O   O7        1.0  0.06320960457040381  0.5822477262463948  0.6237621167250365  1.0000
  O   O8        1.0  0.061365370600599  0.6012313955948041  0.20418765884470824  1.0000
  O   O9        1.0  0.06370111686426805  0.3820688885693993  0.4208184830980502  1.0000
