data_image0
_chemical_formula_structural       NC9NC3OH6C9H8C6NH7Zn2C4O8
_chemical_formula_sum              "N3 C31 O9 H21 Zn2"
_cell_length_a       15.78231758774541
_cell_length_b       9.275152443626249
_cell_length_c       9.274774538082513
_cell_angle_alpha    84.86265069898316
_cell_angle_beta     90.43038941912484
_cell_angle_gamma    90.20707041648353

_space_group_name_H-M_alt    "P 1"
_space_group_IT_number       1

loop_
  _space_group_symop_operation_xyz
  'x, y, z'

loop_
  _atom_site_type_symbol
  _atom_site_label
  _atom_site_symmetry_multiplicity
  _atom_site_fract_x
  _atom_site_fract_y
  _atom_site_fract_z
  _atom_site_occupancy
  N   N1        1.0  0.8014809485930559  0.5837335257811727  0.40527359384656303  1.0000
  C   C1        1.0  0.7525078001212181  0.4923449386538717  0.4323483398223593  1.0000
  C   C2        1.0  0.6917059480833747  0.37890948461971585  0.4659550700666699  1.0000
  C   C3        1.0  0.7106804453613963  0.2364170463156392  0.5080822871005767  1.0000
  C   C4        1.0  0.6336166831889987  0.16735890814511034  0.5285816378199629  1.0000
  C   C5        1.0  0.572345458169331  0.272819219397322  0.4974485525142831  1.0000
  C   C6        1.0  0.47916065227782456  0.2533203277756313  0.503306568354023  1.0000
  C   C7        1.0  0.42599240174244496  0.372874413101327  0.46782990611924813  1.0000
  C   C8        1.0  0.3377090103368177  0.3568857198506239  0.4726412966918343  1.0000
  C   C9        1.0  0.2838610137702354  0.47991837345519345  0.4361232579150922  1.0000
  N   N2        1.0  0.24058003764767721  0.578820766096054  0.40676603530013544  1.0000
  C   C10       1.0  0.3019117316705694  0.22116498204197563  0.5129844096715481  1.0000
  C   C11       1.0  0.3541502594882127  0.1018580290801283  0.5483925671530465  1.0000
  C   C12       1.0  0.44224587092133233  0.11740749964217967  0.5437119396796837  1.0000
  O   O1        1.0  0.609407235563802  0.39780434390465125  0.46044348863444085  1.0000
  H   H1        1.0  0.7729086034543531  0.18836397848751152  0.5222325842941964  1.0000
  H   H2        1.0  0.6243362763461706  0.05381025762963577  0.562168631769384  1.0000
  H   H3        1.0  0.45310725101756255  0.47848925826875033  0.43643056346668363  1.0000
  H   H4        1.0  0.23373029738148995  0.20762341036394583  0.5170570485304751  1.0000
  H   H5        1.0  0.32630857856980083  0.9969652176889111  0.5795777183656123  1.0000
  H   H6        1.0  0.48087638790847825  0.022907910719247814  0.5717668624748028  1.0000
  C   C13       1.0  0.0185403174917018  0.15765989624815835  0.4074848440988101  1.0000
  C   C14       1.0  0.9875418130805353  0.2418135897976719  0.2847636675480409  1.0000
  C   C15       1.0  0.9644110147476005  0.1777184977249957  0.15977355797061654  1.0000
  C   C16       1.0  0.9719137137310254  0.028334133929547096  0.15503017367223237  1.0000
  C   C17       1.0  0.0012517149371222818  0.9425198931768203  0.2767094439428923  1.0000
  C   C18       1.0  0.023528738240957466  0.004883150891685122  0.4045672765634307  1.0000
  C   C19       1.0  0.9485010497734747  0.9625727055825603  0.025596892236359414  1.0000
  C   C20       1.0  0.9288983795296258  0.9074796314235287  0.9172168187321605  1.0000
  C   C21       1.0  0.9051144054104335  0.8406219279179135  0.785716608712471  1.0000
  H   H7        1.0  0.14130619201302252  0.23542839520441514  0.6961468846772003  1.0000
  H   H8        1.0  0.9830770109277462  0.35838498137709496  0.28429449732605017  1.0000
  H   H9        1.0  0.9414272507386727  0.2450291957718107  0.0662197111940801  1.0000
  H   H10       1.0  0.004804799112353211  0.8262051628218665  0.272695234201461  1.0000
  H   H11       1.0  0.1034781223682259  0.7069729028909403  0.6019887630492329  1.0000
  H   H12       1.0  0.9206512265543775  0.7236088834109249  0.7992529875169616  1.0000
  H   H13       1.0  0.8360836165820488  0.8541488414229575  0.7657232523626005  1.0000
  H   H14       1.0  0.9405651799439984  0.8933871576710701  0.692414073029759  1.0000
  C   C22       1.0  0.019535683046617118  0.5849780802464472  0.9821918902524431  1.0000
  C   C23       1.0  0.0800734310552273  0.669434583805425  0.04883930019614045  1.0000
  C   C24       1.0  0.14434235969890863  0.7419655947177806  0.968039123885089  1.0000
  C   C25       1.0  0.14859252442646143  0.7303665110423325  0.8191161620273957  1.0000
  C   C26       1.0  0.08834531960990949  0.6490847813993113  0.7507561701676391  1.0000
  C   C27       1.0  0.022533358224918514  0.5775648936381415  0.8298602639927353  1.0000
  N   N3        1.0  0.2058516076070619  0.8262105241523034  0.03769577603326746  1.0000
  H   H15       1.0  0.8912279115370196  0.3043998815462345  0.10865284625369398  1.0000
  H   H16       1.0  0.07858857207409214  0.676293315843977  0.16483068563558811  1.0000
  H   H17       1.0  0.19820816038611266  0.7855498148865363  0.7555609787948776  1.0000
  H   H18       1.0  0.09209987276856267  0.6450298599044413  0.6346097800317523  1.0000
  H   H19       1.0  0.9335372697784025  0.39300629425822664  0.5641186566034689  1.0000
  H   H20       1.0  0.2034444666032739  0.8352842948088341  0.1490261844703773  1.0000
  H   H21       1.0  0.2542376338043504  0.8802731074866563  0.9784290274305708  1.0000
  Zn  Zn1       1.0  0.9281954637493736  0.5823118833557365  0.40571262134179786  1.0000
  Zn  Zn2       1.0  0.11386546639962097  0.5802305316550342  0.4063388467911604  1.0000
  C   C28       1.0  0.02193101128054996  0.573219375545637  0.669652575968914  1.0000
  C   C29       1.0  0.02013195759701048  0.5893248356446559  0.1423990343942665  1.0000
  C   C30       1.0  0.02256111474301469  0.8447902400403341  0.3993673485167657  1.0000
  C   C31       1.0  0.01950178084573495  0.31775223803355934  0.41268434454940717  1.0000
  O   O2        1.0  0.09079283410633376  0.5899874909459459  0.19640368644521278  1.0000
  O   O3        1.0  0.09218936279445938  0.5709759378395214  0.6161228028180881  1.0000
  O   O4        1.0  0.09269723477109541  0.7902728429245176  0.39786556096869674  1.0000
  O   O5        1.0  0.09028489845116522  0.37069059783696834  0.41466081982808234  1.0000
  O   O6        1.0  0.9517759683377524  0.7918518178857021  0.3973906480835793  1.0000
  O   O7        1.0  0.9512681062898494  0.5725566466290062  0.6156478070086806  1.0000
  O   O8        1.0  0.9498715712255338  0.5915681646408115  0.19592695554708905  1.0000
  O   O9        1.0  0.9493636358888207  0.3722712602677154  0.4141841971751832  1.0000
