data_image0
_chemical_formula_structural       NC9NC3OH6C6NCOC6H11C7OC3OC4H11Zn2C4O8
_chemical_formula_sum              "N3 C43 O12 H28 Zn2"
_cell_length_a       15.78231758774541
_cell_length_b       10.29965916528486
_cell_length_c       10.299374482448636
_cell_angle_alpha    85.5657401976444
_cell_angle_beta     90.0656979821288
_cell_angle_gamma    89.64856781770791

_space_group_name_H-M_alt    "P 1"
_space_group_IT_number       1

loop_
  _space_group_symop_operation_xyz
  'x, y, z'

loop_
  _atom_site_type_symbol
  _atom_site_label
  _atom_site_symmetry_multiplicity
  _atom_site_fract_x
  _atom_site_fract_y
  _atom_site_fract_z
  _atom_site_occupancy
  N   N1        1.0  0.7984287829924971  0.41356318524872515  0.5703180322953653  1.0000
  C   C1        1.0  0.7498767228087828  0.33149613260924005  0.5943723595853605  1.0000
  C   C2        1.0  0.6895975422421475  0.22963097200379723  0.6242299770608932  1.0000
  C   C3        1.0  0.7092289275551658  0.10167193302984256  0.6616565437393017  1.0000
  C   C4        1.0  0.6324832106941173  0.03965795672066251  0.6798694766713242  1.0000
  C   C5        1.0  0.5707256426124818  0.13436228095874236  0.6522108155273247  1.0000
  C   C6        1.0  0.47763037457319996  0.11685287797008524  0.6574162485398343  1.0000
  C   C7        1.0  0.4239114757929111  0.22421213739787604  0.6258966520007168  1.0000
  C   C8        1.0  0.3357014736627043  0.20985484509716493  0.6301721432114762  1.0000
  C   C9        1.0  0.2812868415622668  0.32033777974503486  0.597727220955755  1.0000
  N   N2        1.0  0.2375503689017102  0.40915180525759043  0.5716444018420779  1.0000
  C   C10       1.0  0.3005290436755104  0.08797850371023697  0.6660161754178402  1.0000
  C   C11       1.0  0.3533170632672639  0.9808412055431048  0.6974749633183284  1.0000
  C   C12       1.0  0.44134130680666067  0.9948040802835756  0.6933156547719106  1.0000
  O   O1        1.0  0.6072114433527743  0.246599237657487  0.6193342445033447  1.0000
  H   H1        1.0  0.7716788221743117  0.0585195661805147  0.6742272733010283  1.0000
  H   H2        1.0  0.6237261978192938  0.9376907370271974  0.709708950892528  1.0000
  H   H3        1.0  0.45054010152955976  0.3190535425198573  0.5979989175236972  1.0000
  H   H4        1.0  0.23240977506796498  0.07581862371166559  0.6696351716398425  1.0000
  H   H5        1.0  0.32595828005887467  0.886648185390691  0.7251823980138171  1.0000
  H   H6        1.0  0.48040702585420936  0.9099437932921428  0.7182414803983901  1.0000
  C   C13       1.0  0.017919112305155176  0.029997551111768942  0.5708655151467408  1.0000
  C   C14       1.0  0.018523294810391056  0.03930472107364036  0.434048472604577  1.0000
  C   C15       1.0  0.020077088687603606  0.9271447989031104  0.365216124259939  1.0000
  C   C16       1.0  0.01868287869125517  0.8041127551494849  0.43434534515129275  1.0000
  C   C17       1.0  0.01806810624541687  0.792707345975403  0.5711081309643127  1.0000
  C   C18       1.0  0.017987850328312856  0.9062547564933553  0.6385971725760508  1.0000
  N   N3        1.0  0.019393149179641085  0.9402575277235053  0.22514498448657982  1.0000
  C   C19       1.0  0.05912740400501512  0.848748319514681  0.14553721532126573  1.0000
  O   O2        1.0  0.11756959761325775  0.7753314696308717  0.19269276530481028  1.0000
  C   C20       1.0  0.03452756958484238  0.842831529033414  0.007093783896723995  1.0000
  C   C21       1.0  0.9561875978505694  0.8934867748234939  0.9605104235483437  1.0000
  C   C22       1.0  0.933509674116976  0.8867320828021925  0.8299165697250017  1.0000
  C   C23       1.0  0.9883827366978197  0.8291140603259266  0.7446239129650913  1.0000
  C   C24       1.0  0.06597710426758274  0.7776791090294356  0.7898287733842316  1.0000
  C   C25       1.0  0.08897851818827268  0.78407424348762  0.9203191275485434  1.0000
  H   H7        1.0  0.015970696698005327  0.2197132197114011  0.8289438721315503  1.0000
  H   H8        1.0  0.018436940758091977  0.13392761864455766  0.3802241115748215  1.0000
  H   H9        1.0  0.0165895710948145  0.7173556713934254  0.3815326037670998  1.0000
  H   H10       1.0  0.017533423630415223  0.8982144769260957  0.7440677072776396  1.0000
  H   H11       1.0  0.01670501144352564  0.46089447389195437  0.6235665760961424  1.0000
  H   H12       1.0  0.9952264723817721  0.026644110280925608  0.1791306257820504  1.0000
  H   H13       1.0  0.9117731955821379  0.9366145154485449  0.024859937392395004  1.0000
  H   H14       1.0  0.8731312632372085  0.925780187646847  0.7949477490324544  1.0000
  H   H15       1.0  0.9706593912902204  0.8239587013947296  0.6436108342737111  1.0000
  H   H16       1.0  0.10838709078236203  0.732776147902584  0.7237094502171696  1.0000
  H   H17       1.0  0.14956956913060793  0.7438384079266085  0.95306983733091  1.0000
  C   C26       1.0  0.018072126149977667  0.4114391655626042  0.18960456339988552  1.0000
  C   C27       1.0  0.10657967924183914  0.4252140179059573  0.18750517998930283  1.0000
  C   C28       1.0  0.1511136945635504  0.43363409847085577  0.06915866617429822  1.0000
  C   C29       1.0  0.10637713493080331  0.4251521833173848  0.9522656971805444  1.0000
  C   C30       1.0  0.017915094536508303  0.4112657540050822  0.952369060937185  1.0000
  C   C31       1.0  0.9742505419508474  0.4048308574722137  0.07154630884917235  1.0000
  C   C32       1.0  0.24467073491431035  0.4468199099451646  0.06690672446522083  1.0000
  O   O3        1.0  0.2862302260039702  0.3928616087094077  0.9811681210956023  1.0000
  C   C33       1.0  0.2910770444744206  0.5212333726030223  0.16183849302191455  1.0000
  C   C34       1.0  0.3737370631622541  0.4836859867382674  0.20024078782371887  1.0000
  C   C35       1.0  0.4190093029851887  0.5534936201072811  0.28860318062117596  1.0000
  O   O4        1.0  0.5009801400467795  0.5107789211166076  0.32413070616097284  1.0000
  C   C36       1.0  0.5540801539108335  0.5721147459330889  0.4127030651436987  1.0000
  C   C37       1.0  0.38115331570981303  0.6632579947306971  0.3384382268178851  1.0000
  C   C38       1.0  0.29948284028226047  0.7021286217927449  0.2995287899589742  1.0000
  C   C39       1.0  0.2546995990769383  0.6320830721868762  0.21140883272770883  1.0000
  H   H18       1.0  0.8511919398890534  0.3834553916497652  0.40104208956770554  1.0000
  H   H19       1.0  0.14108998247459192  0.42795924477629493  0.27820167929028705  1.0000
  H   H20       1.0  0.14069251812196815  0.4306628985710461  0.8609775926681861  1.0000
  H   H21       1.0  0.9060176848192227  0.3942106013160356  0.07236106436455247  1.0000
  H   H22       1.0  0.4031053289962234  0.39908082687216506  0.162424212701741  1.0000
  H   H23       1.0  0.6150610713791012  0.5181461793772169  0.42282899940982216  1.0000
  H   H24       1.0  0.5234832440991133  0.5706212235579284  0.5098447812730176  1.0000
  H   H25       1.0  0.5671267030446328  0.6739870499055496  0.3751133208591472  1.0000
  H   H26       1.0  0.4143679354591763  0.7193607370223007  0.4067474221089158  1.0000
  H   H27       1.0  0.2709104409385421  0.7872148248081898  0.33737685527647665  1.0000
  H   H28       1.0  0.19204925133176864  0.665438465082838  0.1810058216772461  1.0000
  Zn  Zn1       1.0  0.9251497812721171  0.4122866856759335  0.5707082865207942  1.0000
  Zn  Zn2       1.0  0.11082933787321186  0.4104177031968448  0.5712647609356755  1.0000
  C   C40       1.0  0.017941883823441963  0.40612500500334286  0.8081886227361141  1.0000
  C   C41       1.0  0.018039263230753992  0.4165810020121025  0.3337845587892311  1.0000
  C   C42       1.0  0.018036658198639758  0.6485402078544751  0.5658869240608169  1.0000
  C   C43       1.0  0.01794442517702531  0.17416423951726065  0.5760863260193347  1.0000
  O   O5        1.0  0.08849265708096338  0.41759171457769967  0.38238385968039007  1.0000
  O   O6        1.0  0.08841497698654094  0.40369479836705874  0.7600112988791117  1.0000
  O   O7        1.0  0.08849055832096316  0.599448149682311  0.5643509604568293  1.0000
  O   O8        1.0  0.0884170124085466  0.22183837321234387  0.5780441005376631  1.0000
  O   O9        1.0  0.9475620433734642  0.6008660162996413  0.5639289467220787  1.0000
  O   O10       1.0  0.9474864623542544  0.40511422526730567  0.7595892163928271  1.0000
  O   O11       1.0  0.9475641428176257  0.4190110965774487  0.38196021572450767  1.0000
  O   O12       1.0  0.9474884981198851  0.22325774590140407  0.5776205539500617  1.0000
