data_image0
_chemical_formula_structural       NC5NC3OH4C9H8C6BrH4Zn2C4O8
_chemical_formula_sum              "N2 C27 O9 H16 Br1 Zn2"
_cell_length_a       13.84702359539666
_cell_length_b       9.275152443626249
_cell_length_c       9.276567756262422
_cell_angle_alpha    85.92079402595407
_cell_angle_beta     90.17190505705399
_cell_angle_gamma    90.5743638874884

_space_group_name_H-M_alt    "P 1"
_space_group_IT_number       1

loop_
  _space_group_symop_operation_xyz
  'x, y, z'

loop_
  _atom_site_type_symbol
  _atom_site_label
  _atom_site_symmetry_multiplicity
  _atom_site_fract_x
  _atom_site_fract_y
  _atom_site_fract_z
  _atom_site_occupancy
  N   N1        1.0  0.9163856461084515  0.5632123411746044  0.40490606080683134  1.0000
  C   C1        1.0  0.8443247870351341  0.5551578556481602  0.4679683432092656  1.0000
  C   C2        1.0  0.7545819893481379  0.5451283196565253  0.5464941722327612  1.0000
  C   C3        1.0  0.6668977251154713  0.5548174812185054  0.47063258489243287  1.0000
  C   C4        1.0  0.5791352801901094  0.5452408920113265  0.5456123681197753  1.0000
  C   C5        1.0  0.4891811527766636  0.5552166441471063  0.46750775106418696  1.0000
  N   N2        1.0  0.41686967218694815  0.5632363852255209  0.4047178655637059  1.0000
  C   C6        1.0  0.5790520437982161  0.5259462317866204  0.6966791232627281  1.0000
  C   C7        1.0  0.6663561667399137  0.5162480121757418  0.7726087454223924  1.0000
  C   C8        1.0  0.7544346819084012  0.5257628990348631  0.6981136605278238  1.0000
  O   O1        1.0  0.8414593482447142  0.5160481406454012  0.7741746898021225  1.0000
  H   H1        1.0  0.6669667905329761  0.56976544177977  0.3535990614139972  1.0000
  H   H2        1.0  0.511575204773073  0.5184089430782317  0.7556916633756131  1.0000
  H   H3        1.0  0.6655084427723161  0.5013297073810574  0.8894108502670792  1.0000
  H   H4        1.0  0.8431357007813827  0.5020859868204388  0.8834897534151528  1.0000
  C   C9        1.0  0.16378672955259727  0.1396063423085434  0.40628402353076365  1.0000
  C   C10       1.0  0.12867421358956843  0.22114471185178533  0.2838887494832856  1.0000
  C   C11       1.0  0.10253339878172762  0.15448031176049093  0.15919830902444465  1.0000
  C   C12       1.0  0.11109349319857165  0.0050921377364197  0.15443426883533284  1.0000
  C   C13       1.0  0.14431522686568932  0.9218553945449433  0.27579574377202554  1.0000
  C   C14       1.0  0.1694777721882621  0.9868314308056416  0.40335232293826473  1.0000
  C   C15       1.0  0.08463936090914403  0.9366761087818449  0.025309243959595655  1.0000
  C   C16       1.0  0.06249018454484799  0.8793602426693663  0.9171872802378487  1.0000
  C   C17       1.0  0.03561653173070933  0.8098055757773718  0.7860002395324863  1.0000
  H   H5        1.0  0.30319896119277323  0.2240838988888458  0.6939889612827096  1.0000
  H   H6        1.0  0.12358605607732565  0.3376575127907695  0.2834374357161067  1.0000
  H   H7        1.0  0.0765038984714761  0.2198045105131039  0.06589043325861943  1.0000
  H   H8        1.0  0.14837223091937246  0.8055061770821327  0.271774740128057  1.0000
  H   H9        1.0  0.2602509501824275  0.6934647747931161  0.6001345635080015  1.0000
  H   H10       1.0  0.05330122361749057  0.6932164830739499  0.79945435994884  1.0000
  H   H11       1.0  0.956970783894014  0.8221910974867883  0.7663044970605966  1.0000
  H   H12       1.0  0.07619047673270708  0.8612422577500284  0.6927199270019091  1.0000
  C   C18       1.0  0.1656825906014039  0.5590732276360542  0.9817061310357816  1.0000
  C   C19       1.0  0.08009796837807825  0.5937968990844384  0.052229074187879025  1.0000
  C   C20       1.0  0.9988845826667694  0.6404033800008575  0.9733974582152451  1.0000
  C   C21       1.0  0.001730845499224196  0.6532301758306969  0.8228561921651796  1.0000
  C   C22       1.0  0.08541173299830285  0.616948101044061  0.750612290941564  1.0000
  C   C23       1.0  0.16758193593117543  0.5673645587471052  0.8279302701679232  1.0000
  Br  Br1       1.0  0.8905833504221989  0.7181785842337749  0.7154231697119919  1.0000
  H   H13       1.0  0.2976560984538452  0.4280533484563394  0.27294374748969386  1.0000
  H   H14       1.0  0.9339619806924155  0.6679041574384152  0.0296441592681429  1.0000
  H   H15       1.0  0.08530924028739871  0.6243168520601119  0.6335363867228998  1.0000
  H   H16       1.0  0.32638109609206967  0.5524762839083075  0.5485273227900955  1.0000
  Zn  Zn1       1.0  0.060814515964306544  0.5632154993343359  0.4048600731277196  1.0000
  Zn  Zn2       1.0  0.2724407253754739  0.5632215387423627  0.40477565296905627  1.0000
  C   C24       1.0  0.16718213382233382  0.5600504471303713  0.6679956593337724  1.0000
  C   C25       1.0  0.16607543101291378  0.5663884125485146  0.14164020096127466  1.0000
  C   C26       1.0  0.16838418014976278  0.8266315702899174  0.39816488227060143  1.0000
  C   C27       1.0  0.16487330100258735  0.29980555698212696  0.41147106086774005  1.0000
  O   O2        1.0  0.24651827314144414  0.5688394539453312  0.19528352061095552  1.0000
  O   O3        1.0  0.24735867969867004  0.5576028971816317  0.6142878557369774  1.0000
  O   O4        1.0  0.248328268041355  0.7728705401597245  0.3963975894025278  1.0000
  O   O5        1.0  0.2455486124119124  0.35357182022609424  0.41317367890558665  1.0000
  O   O6        1.0  0.08770655671022243  0.7728652178500401  0.3964620472124135  1.0000
  O   O7        1.0  0.08673697983279016  0.5575993072782239  0.6143522307247935  1.0000
  O   O8        1.0  0.08589656911403587  0.5688357967992852  0.19534616346721378  1.0000
  O   O9        1.0  0.08492690855370544  0.35356815382062795  0.41323642982288833  1.0000
