data_image0
_chemical_formula_structural       NC9NC3OCH8C12SCH12C13OH12Zn2C4O8
_chemical_formula_sum              "N2 C43 O10 H32 S1 Zn2"
_cell_length_a       17.728193572023454
_cell_length_b       10.299776766347529
_cell_length_c       10.299153481560891
_cell_angle_alpha    85.58387196387294
_cell_angle_beta     90.72181207759093
_cell_angle_gamma    88.43488659094776

_space_group_name_H-M_alt    "P 1"
_space_group_IT_number       1

loop_
  _space_group_symop_operation_xyz
  'x, y, z'

loop_
  _atom_site_type_symbol
  _atom_site_label
  _atom_site_symmetry_multiplicity
  _atom_site_fract_x
  _atom_site_fract_y
  _atom_site_fract_z
  _atom_site_occupancy
  N   N1        1.0  0.7101017397872378  0.38640167822138055  0.5852057157984054  1.0000
  C   C1        1.0  0.6494957290661724  0.34897854915450455  0.5982098878840254  1.0000
  C   C2        1.0  0.5740495728926857  0.30245661242927024  0.6143947483114642  1.0000
  C   C3        1.0  0.5621669030580027  0.17442253053274  0.6238107340136878  1.0000
  C   C4        1.0  0.48546440837970334  0.12497666536323426  0.6387599567087578  1.0000
  C   C5        1.0  0.4273101149426182  0.2076524489550129  0.6562331475820178  1.0000
  C   C6        1.0  0.3492700109810932  0.16261255210173434  0.6779662296175986  1.0000
  C   C7        1.0  0.2879132282187071  0.24806805551426692  0.6425069031142434  1.0000
  C   C8        1.0  0.2136461617415016  0.20877276984187887  0.6626539566418013  1.0000
  C   C9        1.0  0.15130999204064552  0.2967643239784756  0.6251203287911618  1.0000
  N   N2        1.0  0.1012051226083417  0.3675010080275623  0.5949468399709996  1.0000
  C   C10       1.0  0.20010460834594387  0.08390250832841152  0.7193144401605822  1.0000
  C   C11       1.0  0.2605629294906399  0.9987650614319629  0.7561823691286376  1.0000
  C   C12       1.0  0.33472643807023594  0.03757076921575365  0.7361648846966302  1.0000
  O   O1        1.0  0.44065162520105017  0.34143709108929987  0.6549425580162391  1.0000
  C   C13       1.0  0.5083614541618449  0.39879975329662876  0.6063341922288286  1.0000
  H   H1        1.0  0.6091012554351646  0.10496131782504438  0.6217069672182263  1.0000
  H   H2        1.0  0.47782301778213465  0.021327131083465956  0.636773545507461  1.0000
  H   H3        1.0  0.2977859911275317  0.3448771289027925  0.5980830175774101  1.0000
  H   H4        1.0  0.14289624886968602  0.05262012983349762  0.7354537519918212  1.0000
  H   H5        1.0  0.2499534744536354  0.9026150171883666  0.8010674240869454  1.0000
  H   H6        1.0  0.3802704197888476  0.9703521177129109  0.7685832280036022  1.0000
  H   H7        1.0  0.4988702508824319  0.43469201015166803  0.5028072846246241  1.0000
  H   H8        1.0  0.5212439241560799  0.48320562052610927  0.6629207117643545  1.0000
  C   C14       1.0  0.9057282130457189  0.9955825979016976  0.5900765480986017  1.0000
  C   C15       1.0  0.9102862247709365  0.9838525550505978  0.7267044635186692  1.0000
  C   C16       1.0  0.9125231487865934  0.8607737412564354  0.7959384647257217  1.0000
  C   C17       1.0  0.9101419256447075  0.7485717579227736  0.7267160598760172  1.0000
  C   C18       1.0  0.9055859293079365  0.7583097555811049  0.5900874452679756  1.0000
  C   C19       1.0  0.9034041517873355  0.8822531029754804  0.5225324876163737  1.0000
  C   C20       1.0  0.9173366943257929  0.8494289874945065  0.9404751762494294  1.0000
  C   C21       1.0  0.8741585848124535  0.758083408108081  0.013442706653212568  1.0000
  C   C22       1.0  0.8787113586682362  0.7476400264948725  0.14946590037033924  1.0000
  C   C23       1.0  0.9262543913874599  0.8282734222296706  0.21432356379097628  1.0000
  C   C24       1.0  0.9696128253891894  0.919037023367266  0.14273359450511514  1.0000
  C   C25       1.0  0.9651707080559766  0.9298249421348502  0.006702741845164289  1.0000
  S   S1        1.0  0.9321794462204022  0.8144085674306095  0.3888621082980206  1.0000
  C   C26       1.0  0.8563492125923043  0.9341424373703637  0.406502206519269  1.0000
  H   H9        1.0  0.9040210932225695  0.3275043238670967  0.5380158497412821  1.0000
  H   H10       1.0  0.911066583300631  0.070666094115049  0.7796824233332478  1.0000
  H   H11       1.0  0.912889953821763  0.6534453240508186  0.7795468909318166  1.0000
  H   H12       1.0  0.8998883555185734  0.890533819056417  0.4171298731185906  1.0000
  H   H13       1.0  0.9038122122655294  0.43456842757999975  0.5380297539688992  1.0000
  H   H14       1.0  0.8361612576812695  0.6959376618863827  0.9653820161398001  1.0000
  H   H15       1.0  0.8449806758547928  0.6772290629625689  0.20434747655826105  1.0000
  H   H16       1.0  0.006807241375169635  0.9812780525456983  0.1923632273672271  1.0000
  H   H17       1.0  0.9998541010604277  0.9998214522392032  0.9532579424425268  1.0000
  H   H18       1.0  0.8714482064743522  0.029723835945271615  0.3580004389038568  1.0000
  H   H19       1.0  0.8476225262373283  0.9452836793536086  0.5115645118766852  1.0000
  H   H20       1.0  0.8032391389844415  0.9011605060125354  0.3630571642735654  1.0000
  C   C27       1.0  0.9055922735497325  0.37680188143261106  0.20870781838297445  1.0000
  C   C28       1.0  0.8275741472189041  0.3561922924784373  0.20743565908355377  1.0000
  C   C29       1.0  0.7881541686229466  0.3458989487803168  0.08962650158754282  1.0000
  C   C30       1.0  0.8277521368813235  0.3565009860680509  0.9721321306258415  1.0000
  C   C31       1.0  0.9057218603427853  0.3770904802221396  0.9714561365660872  1.0000
  C   C32       1.0  0.9441866599142046  0.387117098375562  0.0902661088921215  1.0000
  C   C33       1.0  0.7056697660751368  0.3241226219747886  0.08925458840918155  1.0000
  C   C34       1.0  0.6579288602662423  0.3916657663609529  0.995399121146932  1.0000
  C   C35       1.0  0.5803061600461327  0.37121690012800235  0.9951270843687473  1.0000
  C   C36       1.0  0.5491180293385239  0.28201294544505684  0.08780858073128872  1.0000
  C   C37       1.0  0.5963524664313113  0.21559054380109255  0.18256998450269024  1.0000
  C   C38       1.0  0.6739787522329066  0.23600958971733332  0.18302025968582347  1.0000
  C   C39       1.0  0.46549264017427083  0.2627678637323152  0.08964170499107404  1.0000
  O   O2        1.0  0.431580639202316  0.3519937305793044  0.16830589838507692  1.0000
  H   H21       1.0  0.05275922349879281  0.4165377730203368  0.4183350724279744  1.0000
  H   H22       1.0  0.7971505676574315  0.34989894377902253  0.298153339967423  1.0000
  H   H23       1.0  0.797812493373637  0.3468957258272252  0.8812071030992166  1.0000
  H   H24       1.0  0.004326631686718096  0.40300205664729255  0.09046050505032555  1.0000
  H   H25       1.0  0.9357017583809584  0.3850963220626983  0.6437138260810014  1.0000
  H   H26       1.0  0.6804741953042749  0.4618315911445363  0.9234043326882428  1.0000
  H   H27       1.0  0.5444909636430206  0.42522741083553706  0.922755197275996  1.0000
  H   H28       1.0  0.5731108470318825  0.14766473816293524  0.2559873529268659  1.0000
  H   H29       1.0  0.7093404383266625  0.18182049770037748  0.25590406098074836  1.0000
  H   H30       1.0  0.45353421940825533  0.16155956623992695  0.1281608233993592  1.0000
  H   H31       1.0  0.4416033623081426  0.27728747043307356  0.9889160915585338  1.0000
  H   H32       1.0  0.37672496871743877  0.3352913423366972  0.16623587255968175  1.0000
  Zn  Zn1       1.0  0.8229657411558882  0.3809438855669123  0.5880242935836311  1.0000
  Zn  Zn2       1.0  0.9883411506208876  0.372948200996287  0.5921388998491934  1.0000
  C   C40       1.0  0.9056966329906858  0.3718623366866862  0.8272802686307724  1.0000
  C   C41       1.0  0.9056120643963411  0.3820313012302372  0.35288309722499256  1.0000
  C   C42       1.0  0.9056080402526323  0.6141363236633621  0.584910027204063  1.0000
  C   C43       1.0  0.9057006010062072  0.13975575670694007  0.5952534064650126  1.0000
  O   O3        1.0  0.968377813473137  0.38074635592460565  0.40283110941536476  1.0000
  O   O4        1.0  0.9684469932906126  0.3670777625476793  0.7804547735253035  1.0000
  O   O5        1.0  0.9683746077408546  0.5627171124191364  0.5847390677331292  1.0000
  O   O6        1.0  0.9684501425731952  0.18510701803490373  0.5985467164276257  1.0000
  O   O7        1.0  0.8428566927690679  0.5687850712582416  0.5816164755942548  1.0000
  O   O8        1.0  0.8429290780125012  0.37314728166335115  0.7773321121621741  1.0000
  O   O9        1.0  0.8428598979884177  0.3868158291911346  0.39970688663064946  1.0000
  O   O10       1.0  0.8429322271036632  0.19117648204962287  0.5954225910118793  1.0000
