data_image0
_chemical_formula_structural       NC9NC3OH6C8NH6C12H10Zn2C4O8
_chemical_formula_sum              "N3 C36 O9 H22 Zn2"
_cell_length_a       15.78231758774541
_cell_length_b       9.27426342843186
_cell_length_c       10.299141136925906
_cell_angle_alpha    85.50362818377448
_cell_angle_beta     90.10591436666134
_cell_angle_gamma    90.24871893605766

_space_group_name_H-M_alt    "P 1"
_space_group_IT_number       1

loop_
  _space_group_symop_operation_xyz
  'x, y, z'

loop_
  _atom_site_type_symbol
  _atom_site_label
  _atom_site_symmetry_multiplicity
  _atom_site_fract_x
  _atom_site_fract_y
  _atom_site_fract_z
  _atom_site_occupancy
  N   N1        1.0  0.8074355263854323  0.5700645329780663  0.5688549562601454  1.0000
  C   C1        1.0  0.7583335716156143  0.4789158109568839  0.592992523586584  1.0000
  C   C2        1.0  0.6973718383635491  0.36577809111505966  0.6229534621908558  1.0000
  C   C3        1.0  0.7161457912742529  0.223658908998569  0.6605098145464601  1.0000
  C   C4        1.0  0.6389845631267274  0.154782365686029  0.6787856488673039  1.0000
  C   C5        1.0  0.5778616119929006  0.25996681240777053  0.6510309326693942  1.0000
  C   C6        1.0  0.484649054855812  0.2405197859300245  0.6562541274632501  1.0000
  C   C7        1.0  0.4316494986191025  0.3597595940021927  0.6246256356792187  1.0000
  C   C8        1.0  0.3433433255083462  0.34381349619029833  0.628915691333195  1.0000
  C   C9        1.0  0.2896689618327746  0.46652265101856855  0.5963587052289896  1.0000
  N   N2        1.0  0.2465275688906382  0.5651649802857492  0.5701858012018726  1.0000
  C   C10       1.0  0.3073543122837949  0.20845011791821144  0.6648833453621035  1.0000
  C   C11       1.0  0.3594244785407761  0.08945683337899715  0.6964508034964174  1.0000
  C   C12       1.0  0.44754225050920654  0.10496486671969141  0.6922773305783947  1.0000
  O   O1        1.0  0.6150994718337683  0.3846240861035633  0.6180405210850514  1.0000
  H   H1        1.0  0.7783065057226295  0.17573123888943348  0.6731243110150575  1.0000
  H   H2        1.0  0.6295442917097737  0.04153129624942366  0.7087285463478664  1.0000
  H   H3        1.0  0.458913568751858  0.46509630573270483  0.5966317013669356  1.0000
  H   H4        1.0  0.23915359088477092  0.19494460242480272  0.6685146768488918  1.0000
  H   H5        1.0  0.33143459535725595  0.9848402579392269  0.7242537803674951  1.0000
  H   H6        1.0  0.48603938292673793  0.010713802772724497  0.7172892309230183  1.0000
  C   C13       1.0  0.024304527621202374  0.1440610990118656  0.5697882576403481  1.0000
  C   C14       1.0  0.013325109836615157  0.22758271321300508  0.451059052303498  1.0000
  C   C15       1.0  0.010656045190032373  0.16274019022122932  0.33342949601773597  1.0000
  C   C16       1.0  0.019589110973091673  0.012859290900421712  0.3316216911768119  1.0000
  C   C17       1.0  0.028294514012885838  0.9278587120866756  0.44954786757764426  1.0000
  C   C18       1.0  0.029666590019563406  0.9911572860542406  0.5692637640775935  1.0000
  C   C19       1.0  0.015447414186639414  0.94295972527506  0.204888847583522  1.0000
  C   C20       1.0  0.9275322741247314  0.9050139409666544  0.17575730178141735  1.0000
  N   N3        1.0  0.8581427307791599  0.8750627936844815  0.1527729823924482  1.0000
  H   H7        1.0  0.09749214489067692  0.22141184895901067  0.8694424586575853  1.0000
  H   H8        1.0  0.00241212284039793  0.22978992030079493  0.2433986190826609  1.0000
  H   H9        1.0  0.03195245775762934  0.8113288996993011  0.44784819291084976  1.0000
  H   H10       1.0  0.07564445243144124  0.6930818607318278  0.7727619014539009  1.0000
  H   H11       1.0  0.05459330427138531  0.843405973008249  0.2100336050177154  1.0000
  H   H12       1.0  0.040449404955664514  0.017520546150858084  0.12414050796095964  1.0000
  C   C21       1.0  0.02689003186845372  0.5677333397838902  0.18813263429804228  1.0000
  C   C22       1.0  0.11548752286963432  0.5822794931262198  0.186575993913352  1.0000
  C   C23       1.0  0.16050833578619683  0.5895273941982797  0.068653376610188  1.0000
  C   C24       1.0  0.11573409174221777  0.582032821910741  0.9513111923339167  1.0000
  C   C25       1.0  0.02708110535611885  0.5674849957024632  0.9509193989090194  1.0000
  C   C26       1.0  0.9832049351118796  0.5604224543297489  0.06977759223770152  1.0000
  C   C27       1.0  0.2542355784644088  0.6049175777977251  0.06805137020216345  1.0000
  C   C28       1.0  0.30415946586045073  0.5254835705265011  0.9860296481302684  1.0000
  C   C29       1.0  0.3923746921054492  0.5401490817467975  0.9857008096637596  1.0000
  C   C30       1.0  0.43168273528983225  0.6340504178717319  0.06691782333203733  1.0000
  C   C31       1.0  0.3828550938437727  0.7134817609662816  0.1486981810419179  1.0000
  C   C32       1.0  0.29461995464515645  0.699178117761033  0.14949654471274276  1.0000
  H   H13       1.0  0.9928056629285014  0.5622114118640229  0.5162019882309716  1.0000
  H   H14       1.0  0.14979754611206242  0.5860143331398704  0.27742974310158997  1.0000
  H   H15       1.0  0.15000241749790466  0.58954906076  0.8599841793615903  1.0000
  H   H16       1.0  0.9148674665039562  0.5492066837200094  0.07026234709451405  1.0000
  H   H17       1.0  0.8597039628340091  0.5409423287525121  0.74282387887681  1.0000
  H   H18       1.0  0.2750833810610078  0.4507279369343585  0.9234780810096201  1.0000
  H   H19       1.0  0.43029945921537727  0.4783489515115657  0.9226263179320497  1.0000
  H   H20       1.0  0.4999748213626106  0.6452622661062566  0.06648172660015539  1.0000
  H   H21       1.0  0.41337553010140793  0.7865187274514813  0.2113354235295377  1.0000
  H   H22       1.0  0.25793071800014955  0.7631360332571573  0.2124692699027253  1.0000
  Zn  Zn1       1.0  0.9341479787868362  0.5686467727736164  0.56924650569502  1.0000
  Zn  Zn2       1.0  0.11981501614035439  0.5665709651145401  0.569804876055849  1.0000
  C   C33       1.0  0.027006704873975704  0.5617860041310414  0.8067398945103555  1.0000
  C   C34       1.0  0.026958329083084376  0.5734335309215319  0.33231161968567857  1.0000
  C   C35       1.0  0.02864738405604771  0.8310397728200422  0.5641873726273019  1.0000
  C   C36       1.0  0.02531757559408243  0.3041780300245949  0.574864211694257  1.0000
  O   O2        1.0  0.09744088348522473  0.5745525164996277  0.3809113068112433  1.0000
  O   O3        1.0  0.09744112879915545  0.559090440598925  0.75856362437258  1.0000
  O   O4        1.0  0.0987650484960425  0.7765162741736411  0.5627007430675319  1.0000
  O   O5        1.0  0.09611690047367595  0.3571266939827975  0.5767740905384571  1.0000
  O   O6        1.0  0.9578460310944756  0.7780910446153022  0.5622772910150347  1.0000
  O   O7        1.0  0.9565221223454793  0.5606669439584662  0.758140101997181  1.0000
  O   O8        1.0  0.9565218763786499  0.5761289701050094  0.3804862229663361  1.0000
  O   O9        1.0  0.955197893322724  0.3587031372402368  0.5763491040740076  1.0000
