data_image0
_chemical_formula_structural       NC5NC3BrH3C6NH7C7ONH5Zn2C4O8
_chemical_formula_sum              "N4 C25 Br1 H15 O9 Zn2"
_cell_length_a       13.839083392302014
_cell_length_b       9.274771166103582
_cell_length_c       9.273042158839658
_cell_angle_alpha    86.05644510922068
_cell_angle_beta     90.09396774382412
_cell_angle_gamma    90.6230172981901

_space_group_name_H-M_alt    "P 1"
_space_group_IT_number       1

loop_
  _space_group_symop_operation_xyz
  'x, y, z'

loop_
  _atom_site_type_symbol
  _atom_site_label
  _atom_site_symmetry_multiplicity
  _atom_site_fract_x
  _atom_site_fract_y
  _atom_site_fract_z
  _atom_site_occupancy
  N   N1        1.0  0.9190741664710593  0.5625077459006955  0.40723774977331995  1.0000
  C   C1        1.0  0.8466298890312167  0.49887029923492787  0.4098183778214728  1.0000
  C   C2        1.0  0.7563709229568558  0.4196833113251981  0.41302941366887724  1.0000
  C   C3        1.0  0.6693432737299821  0.4958783890374923  0.40993989418134563  1.0000
  C   C4        1.0  0.5807779743407825  0.4211559383738077  0.41296964232553823  1.0000
  C   C5        1.0  0.4915642226994453  0.49970225854142347  0.4097846249419945  1.0000
  N   N2        1.0  0.4198479709155963  0.5628473401336835  0.40722392362372184  1.0000
  C   C6        1.0  0.5791723293975732  0.2699269277547982  0.41910158779294227  1.0000
  C   C7        1.0  0.6657540910335041  0.19361058922874605  0.42219593274073225  1.0000
  C   C8        1.0  0.7545104621103732  0.2676189617917184  0.41919515879883584  1.0000
  Br  Br1       1.0  0.8711492964719488  0.15753569620619157  0.4236588394603886  1.0000
  H   H1        1.0  0.6705324219744164  0.6130680711068237  0.40518795601116575  1.0000
  H   H2        1.0  0.5110693795045087  0.21107811485395556  0.4214874872604  1.0000
  H   H3        1.0  0.6638034749019752  0.0766700935390494  0.4269373895570894  1.0000
  C   C9        1.0  0.16650000794535935  0.13908724478383272  0.40801655294816563  1.0000
  C   C10       1.0  0.14411441963519267  0.22102323708413496  0.2791246941511374  1.0000
  C   C11       1.0  0.1307497139654934  0.15459859595225067  0.1494148198749179  1.0000
  C   C12       1.0  0.1398201597305826  0.004850627661836753  0.14765729962486196  1.0000
  C   C13       1.0  0.16041685998271182  0.9215753450711461  0.27477860195340287  1.0000
  C   C14       1.0  0.17243132476602963  0.9862568879889879  0.4064576624275369  1.0000
  N   N3        1.0  0.10895615448941287  0.2396195670920043  0.01910634176915948  1.0000
  H   H4        1.0  0.2756147753451672  0.22214396517741597  0.7234530879959471  1.0000
  H   H5        1.0  0.13924164663414684  0.33760680952039746  0.27857117219944594  1.0000
  H   H6        1.0  0.12999470540901625  0.9523055947867237  0.04785862522841012  1.0000
  H   H7        1.0  0.16467047141904947  0.8053707362746544  0.27065057900269496  1.0000
  H   H8        1.0  0.24201057765507894  0.6914981752069477  0.6210663204782614  1.0000
  H   H9        1.0  0.10229851626522501  0.3516884607677506  0.019059711056993004  1.0000
  H   H10       1.0  0.09922442986765434  0.19111677151152584  0.921678008480042  1.0000
  C   C15       1.0  0.168972385871512  0.5582137032117536  0.9839804035172217  1.0000
  C   C16       1.0  0.08028576394480824  0.5673389579217192  0.056646755149974526  1.0000
  C   C17       1.0  0.9934417656445665  0.5904178716514494  0.9803504149012108  1.0000
  C   C18       1.0  0.9958079015782539  0.6026296042571198  0.8288291830064551  1.0000
  C   C19       1.0  0.08289781970081966  0.5913854487526702  0.755157341465853  1.0000
  C   C20       1.0  0.1699589612587802  0.5671303538776102  0.8304938098727161  1.0000
  C   C21       1.0  0.9011749468814598  0.6003131961724144  0.06019465682301117  1.0000
  O   O1        1.0  0.8943286436049532  0.5444884494018392  0.18766817474745445  1.0000
  N   N4        1.0  0.8194942774672932  0.67343729258619  0.9965257984003224  1.0000
  H   H11       1.0  0.4037978375931093  0.6134704216198084  0.08383260769271628  1.0000
  H   H12       1.0  0.930197746703586  0.6168471117314485  0.7661816173572098  1.0000
  H   H13       1.0  0.3281918660402918  0.5976558749686771  0.5475116951440806  1.0000
  H   H14       1.0  0.8245838807205672  0.7357297714019404  0.8987452198247459  1.0000
  H   H15       1.0  0.7541825008613915  0.6732306485106136  0.05277035913742667  1.0000
  Zn  Zn1       1.0  0.06358665470679468  0.5626019657736574  0.40724209677878687  1.0000
  Zn  Zn2       1.0  0.27533540582932825  0.5627414218243603  0.40723142689294534  1.0000
  C   C22       1.0  0.1697300639886263  0.5596984872397024  0.6704952009572561  1.0000
  C   C23       1.0  0.16919432174475846  0.5656467234027982  0.14397846071559428  1.0000
  C   C24       1.0  0.17129850040264746  0.826063258179669  0.4010087129535944  1.0000
  C   C25       1.0  0.16762580103165514  0.29928022018066813  0.41346502875543867  1.0000
  O   O2        1.0  0.24962630890507964  0.5681879427280261  0.19767123272567289  1.0000
  O   O3        1.0  0.25001047129543386  0.5572620192719826  0.6167939178456094  1.0000
  O   O4        1.0  0.25127592202378457  0.7723549555213283  0.3991816694156658  1.0000
  O   O5        1.0  0.2483607858675212  0.3530950156114918  0.4152833730704243  1.0000
  O   O6        1.0  0.09056120240914665  0.7722483719404267  0.39919015059736473  1.0000
  O   O7        1.0  0.08929576372042371  0.5571571679271448  0.616802318987183  1.0000
  O   O8        1.0  0.08891159902284639  0.5680830228636149  0.19767790106212144  1.0000
  O   O9        1.0  0.08764607603504106  0.35299008656816966  0.41529014948812226  1.0000
