data_image0
_chemical_formula_structural       NC5OC5NC4H8C6NH7C6NCOH5Zn2C4O8
_chemical_formula_sum              "N4 C31 O10 H20 Zn2"
_cell_length_a       19.189071930511275
_cell_length_b       9.274771166103582
_cell_length_c       9.27373355559583
_cell_angle_alpha    86.06900368676713
_cell_angle_beta     89.98918376362916
_cell_angle_gamma    90.58817672672019

_space_group_name_H-M_alt    "P 1"
_space_group_IT_number       1

loop_
  _space_group_symop_operation_xyz
  'x, y, z'

loop_
  _atom_site_type_symbol
  _atom_site_label
  _atom_site_symmetry_multiplicity
  _atom_site_fract_x
  _atom_site_fract_y
  _atom_site_fract_z
  _atom_site_occupancy
  N   N1        1.0  0.6639308632762696  0.5613806913390385  0.40689393159041365  1.0000
  C   C1        1.0  0.6097289152298624  0.6123862624749548  0.3865011924010797  1.0000
  C   C2        1.0  0.542308671685453  0.6758286898822299  0.3611356908858523  1.0000
  C   C3        1.0  0.5331384585705004  0.7822738897348427  0.24839127269113725  1.0000
  C   C4        1.0  0.4676473967739593  0.8439827197773431  0.22389117835465933  1.0000
  C   C5        1.0  0.4106669719297037  0.7991152015095013  0.31063169749936637  1.0000
  O   O1        1.0  0.3460248733656691  0.8648306594024218  0.28361074902327044  1.0000
  C   C6        1.0  0.2807247824597789  0.798897941078109  0.3100059561080888  1.0000
  C   C7        1.0  0.22440124140237272  0.8854370198297258  0.34342854957170044  1.0000
  C   C8        1.0  0.1582949409833002  0.8240554014209418  0.36887208394697923  1.0000
  C   C9        1.0  0.1478491180919686  0.6753192766325316  0.3596671447321136  1.0000
  C   C10       1.0  0.0797956831601309  0.6121055884153639  0.3856919606600193  1.0000
  N   N2        1.0  0.025084722937344907  0.5612839843277649  0.406615242873195  1.0000
  C   C11       1.0  0.2036973814368273  0.5884149455328112  0.324117362532925  1.0000
  C   C12       1.0  0.2697950496636238  0.6498408909693529  0.2987221721270781  1.0000
  C   C13       1.0  0.42032466585876677  0.6936918472648903  0.42517027227177495  1.0000
  C   C14       1.0  0.4858068016171915  0.6319791897512517  0.44973848909074027  1.0000
  H   H1        1.0  0.5765587054597635  0.8176479134629413  0.17964147776029682  1.0000
  H   H2        1.0  0.4610192573374129  0.9263928439014704  0.13665712390490237  1.0000
  H   H3        1.0  0.23201676189715192  0.0005565859755383145  0.35051544224327014  1.0000
  H   H4        1.0  0.11539356774234691  0.8925040207834251  0.3954962577392471  1.0000
  H   H5        1.0  0.1960759404954195  0.4734467235193292  0.31528246922880987  1.0000
  H   H6        1.0  0.3119879257855798  0.5815833999512212  0.2683091984619492  1.0000
  H   H7        1.0  0.3776259548946653  0.660765445504498  0.4966380993533481  1.0000
  H   H8        1.0  0.4924475293860239  0.5507459109410995  0.5381816782551876  1.0000
  C   C15       1.0  0.8423717688299143  0.13774481331566424  0.40754177764409993  1.0000
  C   C16       1.0  0.8263166697357491  0.21967388982316804  0.2786732817665043  1.0000
  C   C17       1.0  0.8167679217545386  0.15323430701522  0.1489820715089953  1.0000
  C   C18       1.0  0.8233106675627878  0.0034780771159728108  0.14721991011720847  1.0000
  C   C19       1.0  0.8380768608874068  0.9202109057730689  0.2743189541039608  1.0000
  C   C20       1.0  0.8466504636737745  0.9849089701652388  0.4059798888167401  1.0000
  N   N3        1.0  0.8011407692692962  0.23824755630219951  0.01869676976590528  1.0000
  H   H9        1.0  0.9208461270975526  0.2207711304608129  0.7228923959886737  1.0000
  H   H10       1.0  0.8228028497251767  0.33626159356457364  0.27812238697333336  1.0000
  H   H11       1.0  0.8162936979434262  0.9509211497314475  0.04743535387069864  1.0000
  H   H12       1.0  0.8411473866298295  0.8040017455558506  0.2701890499896695  1.0000
  H   H13       1.0  0.8966819180143473  0.6901336295897558  0.6205325568398767  1.0000
  H   H14       1.0  0.7963393686147174  0.35032223999384837  0.018653665091935334  1.0000
  H   H15       1.0  0.7941897563281556  0.1897332703614147  0.921282293170822  1.0000
  C   C21       1.0  0.8444482815988997  0.556782212325762  0.9835422228481322  1.0000
  C   C22       1.0  0.7803564718729762  0.5485201936059523  0.05755838204373042  1.0000
  C   C23       1.0  0.7169574573752211  0.5519476492888447  0.9826515524150938  1.0000
  C   C24       1.0  0.7176553582865215  0.5683258955062047  0.8312731457510814  1.0000
  C   C25       1.0  0.7806884395626702  0.574435756538727  0.7560577711998494  1.0000
  C   C26       1.0  0.8445739377075617  0.565871513479784  0.8299794357457068  1.0000
  N   N4        1.0  0.6526753701202369  0.5469056622847994  0.06272495764135644  1.0000
  C   C27       1.0  0.58955560188858  0.4804986177559216  0.016113456913616767  1.0000
  O   O2        1.0  0.5888036112916306  0.4041627718535633  0.9089036495141566  1.0000
  H   H16       1.0  0.009171675237521049  0.6568983371226629  0.07954426426256389  1.0000
  H   H17       1.0  0.6695756407391232  0.5779427436249093  0.7706779703698574  1.0000
  H   H18       1.0  0.9560366425219913  0.6272045301812634  0.5446742765202126  1.0000
  H   H19       1.0  0.6526195055899884  0.5852593492248535  0.16607343552791362  1.0000
  H   H20       1.0  0.541985782067577  0.4926085866599484  0.07654875423164254  1.0000
  Zn  Zn1       1.0  0.7681520564009663  0.5613490250136393  0.40682183154632634  1.0000
  Zn  Zn2       1.0  0.9208634895662746  0.5613040212278335  0.40669914817732344  1.0000
  C   C28       1.0  0.8445196096610518  0.5584070366973926  0.6699952552822681  1.0000
  C   C29       1.0  0.844497613123476  0.564247830591331  0.14352586120014243  1.0000
  C   C30       1.0  0.8458372511803443  0.8247152104214082  0.4005320256583105  1.0000
  C   C31       1.0  0.8431799107530027  0.2979379246749896  0.41298917089772313  1.0000
  O   O3        1.0  0.9024673304745009  0.5667299886222759  0.19717128560283936  1.0000
  O   O4        1.0  0.9024543310229092  0.5558896291985893  0.6162563041772922  1.0000
  O   O5        1.0  0.903517562199298  0.770936863729575  0.39866283762125176  1.0000
  O   O6        1.0  0.9014040472241176  0.3516827632649393  0.4147646441216002  1.0000
  O   O7        1.0  0.7876114466302124  0.7709702829933802  0.39875633563633195  1.0000
  O   O8        1.0  0.7865482241920942  0.5559247806715664  0.6163497221530323  1.0000
  O   O9        1.0  0.7865612231789252  0.5667650712225525  0.19726297092956258  1.0000
  O   O10       1.0  0.7854979398896258  0.3517178367084135  0.4148564375198851  1.0000
