data_image0
_chemical_formula_structural       NC5NC3BrH3C9H8C9H10Zn2C4O8
_chemical_formula_sum              "N2 C30 Br1 H21 Zn2 O8"
_cell_length_a       13.839083392302014
_cell_length_b       9.275152443626249
_cell_length_c       10.29718717394978
_cell_angle_alpha    85.37052444745348
_cell_angle_beta     89.97508670927832
_cell_angle_gamma    90.59950914120974

_space_group_name_H-M_alt    "P 1"
_space_group_IT_number       1

loop_
  _space_group_symop_operation_xyz
  'x, y, z'

loop_
  _atom_site_type_symbol
  _atom_site_label
  _atom_site_symmetry_multiplicity
  _atom_site_fract_x
  _atom_site_fract_y
  _atom_site_fract_z
  _atom_site_occupancy
  N   N1        1.0  0.9209777006714415  0.5792217343619084  0.5622451116999179  1.0000
  C   C1        1.0  0.8485470581956959  0.5155520749108014  0.5646637638821395  1.0000
  C   C2        1.0  0.7583050589621941  0.4363250048002329  0.5676732613242832  1.0000
  C   C3        1.0  0.6712610836657694  0.5125586482709255  0.5647776463619998  1.0000
  C   C4        1.0  0.582711794898971  0.43779837783642  0.5676172435115803  1.0000
  C   C5        1.0  0.4934812136305585  0.5163844555073112  0.5646321300863177  1.0000
  N   N2        1.0  0.42175143243485785  0.5795615010665873  0.5622321553393379  1.0000
  C   C6        1.0  0.5811385533177272  0.28649282353314875  0.5733643360444849  1.0000
  C   C7        1.0  0.6677366671390766  0.21013785882433944  0.5762644768993856  1.0000
  C   C8        1.0  0.756477180567266  0.2841836895215424  0.5734520347479819  1.0000
  Br  Br1       1.0  0.8731396019921522  0.1740447050068257  0.5776355628532794  1.0000
  H   H1        1.0  0.6724251223394989  0.6298076472932481  0.5603239563388218  1.0000
  H   H2        1.0  0.5130482131656399  0.22761422743579687  0.575600501414999  1.0000
  H   H3        1.0  0.6658111077383422  0.09313817623605813  0.5807083569847422  1.0000
  C   C9        1.0  0.16851825403732046  0.15575756083331416  0.5635648954004842  1.0000
  C   C10       1.0  0.1336971670653726  0.23845824807308658  0.45320958938288985  1.0000
  C   C11       1.0  0.10785881164864075  0.17298400114952073  0.3407879079241338  1.0000
  C   C12       1.0  0.11643598641858377  0.023647294125772822  0.33649561363133174  1.0000
  C   C13       1.0  0.14936783128631315  0.9392570508182881  0.4459183155316675  1.0000
  C   C14       1.0  0.17422005224895742  0.0030145866415600743  0.5609236309450063  1.0000
  C   C15       1.0  0.09029542663132317  0.9564641324019724  0.22007587617883995  1.0000
  C   C16       1.0  0.06840881923745766  0.9001806005643723  0.12259259933088185  1.0000
  C   C17       1.0  0.04185374810212816  0.8318784905718619  0.004313739502530107  1.0000
  H   H4        1.0  0.3072783165730495  0.23753861878803087  0.822986243378607  1.0000
  H   H5        1.0  0.1286072184023579  0.35497222501254244  0.45280111792015765  1.0000
  H   H6        1.0  0.08205190863175216  0.23919475440715332  0.25665891722547496  1.0000
  H   H7        1.0  0.15343742084613732  0.8229492863406016  0.44229448832429424  1.0000
  H   H8        1.0  0.2645445171238032  0.7078007269930379  0.7383592414567155  1.0000
  H   H9        1.0  0.059514394904906176  0.7151703022322856  0.01644871460481245  1.0000
  H   H10       1.0  0.9632127108299012  0.8444052719277212  0.9865325937078482  1.0000
  H   H11       1.0  0.08268871202234274  0.884243231062752  0.9202304606273013  1.0000
  C   C18       1.0  0.1714965434990083  0.57933399666856  0.18079128549879653  1.0000
  C   C19       1.0  0.07383868938631433  0.6188917137894783  0.17718838070094467  1.0000
  C   C20       1.0  0.023805690713721402  0.6391580562728283  0.0587261033626334  1.0000
  C   C21       1.0  0.0734601158296686  0.6190445055516065  0.94196518830773  1.0000
  C   C22       1.0  0.17124176468158048  0.579438144549052  0.9436972765778218  1.0000
  C   C23       1.0  0.21962141863999876  0.5598401129542172  0.06349851318369604  1.0000
  C   C24       1.0  0.9181816806857831  0.6819422593912965  0.06426147523205183  1.0000
  C   C25       1.0  0.8501421766287109  0.6238718718606673  0.9641722627048743  1.0000
  C   C26       1.0  0.879946881001261  0.7830445166900903  0.9525758776644168  1.0000
  H   H12       1.0  0.20912993599257756  0.5641042331617612  0.5097169698155337  1.0000
  H   H13       1.0  0.03613747642872589  0.6341635244274961  0.26721981885615054  1.0000
  H   H14       1.0  0.0368050396256312  0.6338888410316859  0.8493126840771983  1.0000
  H   H15       1.0  0.2949663099131184  0.5293197854772096  0.06555088491822514  1.0000
  H   H16       1.0  0.35591997671059816  0.5046144187056769  0.7397536126607287  1.0000
  H   H17       1.0  0.8842325524595763  0.6956950456699138  0.16029669192587948  1.0000
  H   H18       1.0  0.8824280146124138  0.5587810517042748  0.889849418129387  1.0000
  H   H19       1.0  0.7749101459702724  0.6043011432298488  0.9993536319017644  1.0000
  H   H20       1.0  0.9303379198534127  0.8146421945248719  0.8712097922188451  1.0000
  H   H21       1.0  0.8221335287791418  0.8565036246187003  0.9809772519687758  1.0000
  Zn  Zn1       1.0  0.06549015676580483  0.5793159168905664  0.5622488919394926  1.0000
  Zn  Zn2       1.0  0.27723888534756314  0.5794554957420439  0.5622390722145605  1.0000
  C   C27       1.0  0.17124908244993597  0.573671383429848  0.7995096215373598  1.0000
  C   C28       1.0  0.17148228415992395  0.5851018509635939  0.3249784643296787  1.0000
  C   C29       1.0  0.173139039786824  0.842864235730963  0.5562466000743442  1.0000
  C   C30       1.0  0.16959224288078678  0.31590726540153535  0.5682415604530744  1.0000
  O   O1        1.0  0.25183499520008334  0.5870842713557693  0.3733652917967909  1.0000
  O   O2        1.0  0.2516087496722106  0.5717938118052459  0.7511149705904394  1.0000
  O   O3        1.0  0.2531338304143709  0.7891704439169467  0.5546783550069405  1.0000
  O   O4        1.0  0.2503098423044021  0.3697076495029561  0.5698018099553341  1.0000
  O   O5        1.0  0.09241912754952963  0.7890637630835924  0.5546861541952326  1.0000
  O   O6        1.0  0.09089405849018249  0.5716888641867732  0.7511226951148655  1.0000
  O   O7        1.0  0.09112030426558704  0.5869792732527483  0.3733714547330069  1.0000
  O   O8        1.0  0.08959515126399031  0.36960264109498553  0.5698080703130193  1.0000
