data_image0
_chemical_formula_structural       NC8OC7NH8C12H10C12H10Zn2C4O8
_chemical_formula_sum              "N2 C43 O9 H28 Zn2"
_cell_length_a       19.090736677544083
_cell_length_b       13.024581838241811
_cell_length_c       13.024585202197208
_cell_angle_alpha    84.12653577963174
_cell_angle_beta     93.99188052093368
_cell_angle_gamma    93.7331542246462

_space_group_name_H-M_alt    "P 1"
_space_group_IT_number       1

loop_
  _space_group_symop_operation_xyz
  'x, y, z'

loop_
  _atom_site_type_symbol
  _atom_site_label
  _atom_site_symmetry_multiplicity
  _atom_site_fract_x
  _atom_site_fract_y
  _atom_site_fract_z
  _atom_site_occupancy
  N   N1        1.0  0.6542622302253418  0.12410579399917106  0.8366101546036212  1.0000
  C   C1        1.0  0.6025361210069271  0.16596439882983408  0.8355543020505379  1.0000
  C   C2        1.0  0.5381946338156662  0.21803030437368776  0.8342414803115574  1.0000
  C   C3        1.0  0.47659035368829283  0.17786223841668086  0.7845586588115367  1.0000
  C   C4        1.0  0.41407844053176696  0.2284037747050694  0.7831951460800246  1.0000
  C   C5        1.0  0.4123176863066098  0.3194402024150063  0.8323266544091162  1.0000
  C   C6        1.0  0.47467157034954593  0.3599167273053669  0.8808892486229414  1.0000
  C   C7        1.0  0.5371384907637533  0.30925220517188345  0.8821958067489668  1.0000
  C   C8        1.0  0.3465945673527903  0.3746098548575201  0.8302388327970951  1.0000
  O   O1        1.0  0.350798366481287  0.4718876728491775  0.8277662950365294  1.0000
  C   C9        1.0  0.2761076102488551  0.31954048175212507  0.8309530896596166  1.0000
  C   C10       1.0  0.26615345525109485  0.22098037075707544  0.8849053200862182  1.0000
  C   C11       1.0  0.19927383460691653  0.17045024101424083  0.886110623007901  1.0000
  C   C12       1.0  0.14146193495879883  0.2180336365057412  0.8341959020848293  1.0000
  C   C13       1.0  0.1507200701531547  0.3166079176234635  0.781416059060517  1.0000
  C   C14       1.0  0.2175656856847905  0.36726967844051717  0.7801469229147119  1.0000
  C   C15       1.0  0.0726203818198395  0.16596630356567024  0.8355295360899002  1.0000
  N   N2        1.0  0.017276480942325177  0.12410644421896554  0.8366016070113793  1.0000
  H   H1        1.0  0.4769331368319876  0.10774607008615106  0.7464816751820285  1.0000
  H   H2        1.0  0.36736380671056273  0.19693291087719472  0.7427366671889419  1.0000
  H   H3        1.0  0.4749154148040866  0.4302996841519559  0.9186151413178008  1.0000
  H   H4        1.0  0.5845793677714785  0.3412472731615993  0.9205497639956691  1.0000
  H   H5        1.0  0.30988710662738667  0.18347560009196062  0.9271182870676451  1.0000
  H   H6        1.0  0.19261902863509212  0.09450467529459267  0.927901135460143  1.0000
  H   H7        1.0  0.10629213152792381  0.3543311536481397  0.7412889033521771  1.0000
  H   H8        1.0  0.22365482986862253  0.44343151148910187  0.738694777094091  1.0000
  C   C16       1.0  0.822673579349317  0.8212313096710901  0.8442041721665272  1.0000
  C   C17       1.0  0.788133848735942  0.7584343794473456  0.7724293104839527  1.0000
  C   C18       1.0  0.810856640995841  0.6601045562709964  0.7632490190316208  1.0000
  C   C19       1.0  0.8681329010661043  0.6225322487669804  0.8261330540096324  1.0000
  C   C20       1.0  0.9031505965862247  0.6853642023080726  0.8970505045514694  1.0000
  C   C21       1.0  0.8804818829253653  0.7837256208317752  0.9062976639073044  1.0000
  C   C22       1.0  0.8929519688071528  0.5190537389543253  0.8152778555329951  1.0000
  C   C23       1.0  0.9619581015879022  0.5132661027010048  0.7858631896890774  1.0000
  C   C24       1.0  0.986907068813274  0.41876854224868904  0.7680662345345523  1.0000
  C   C25       1.0  0.9433331630925939  0.32881317190872833  0.7791491095604866  1.0000
  C   C26       1.0  0.8748979754572186  0.3327277831277834  0.8093237178783866  1.0000
  C   C27       1.0  0.8488719502523122  0.42697302281131416  0.8290166863287244  1.0000
  H   H9        1.0  0.8174987856655606  0.05844249420990047  0.9329627832325453  1.0000
  H   H10       1.0  0.7436383030064309  0.7853175100000453  0.7231798900835087  1.0000
  H   H11       1.0  0.7838653255824346  0.6132230280139523  0.7069863078372831  1.0000
  H   H12       1.0  0.9477904894230612  0.6578877097590846  0.9456599645136103  1.0000
  H   H13       1.0  0.9082915973057717  0.8303348877819013  0.9620514545221048  1.0000
  H   H14       1.0  0.996214184380473  0.5826293200414342  0.7748647782670521  1.0000
  H   H15       1.0  0.03999664600430042  0.41542931229374797  0.744856648156389  1.0000
  H   H16       1.0  0.9627648995838576  0.2556360174228691  0.7649788037944306  1.0000
  H   H17       1.0  0.8426589444872941  0.2612838043871518  0.819119502485078  1.0000
  H   H18       1.0  0.6791563382651082  0.3420914911646747  0.871708312836465  1.0000
  C   C28       1.0  0.8213617396262065  0.12286428385509506  0.5344229094705162  1.0000
  C   C29       1.0  0.809441015613504  0.2052819003995721  0.4579270612598452  1.0000
  C   C30       1.0  0.8333052117967977  0.20370286618606787  0.35908598851361306  1.0000
  C   C31       1.0  0.8690208370092776  0.1194297842318313  0.33475076320830255  1.0000
  C   C32       1.0  0.8816323232734916  0.03759901466674222  0.4111586960041187  1.0000
  C   C33       1.0  0.8577996474305956  0.03909149374081468  0.510045201767659  1.0000
  C   C34       1.0  0.8953218510959057  0.118477934209551  0.2305739366152324  1.0000
  C   C35       1.0  0.9682305924853087  0.11511546614795742  0.22297430905974203  1.0000
  C   C36       1.0  0.996625190625788  0.12058477454145572  0.12661218727138124  1.0000
  C   C37       1.0  0.9527150550392774  0.12969988806248178  0.03653610519625515  1.0000
  C   C38       1.0  0.8801245115649078  0.1320980242983334  0.042417277566614286  1.0000
  C   C39       1.0  0.8501837481075587  0.12534005071408605  0.13879789366440387  1.0000
  H   H19       1.0  0.7913063662276917  0.042330509146775434  0.7863851477818821  1.0000
  H   H20       1.0  0.7818078665622386  0.2711210877923804  0.47445980671617427  1.0000
  H   H21       1.0  0.8240390365115837  0.26827085926992306  0.30146997601685593  1.0000
  H   H22       1.0  0.9095821969203834  0.9722927522381453  0.3939312204794425  1.0000
  H   H23       1.0  0.8679760069614211  0.9746330215294635  0.567340300512766  1.0000
  H   H24       1.0  0.003400306012046658  0.11008277061274296  0.29204650750233974  1.0000
  H   H25       1.0  0.052881807688129445  0.1185388965522205  0.12178095783778081  1.0000
  H   H26       1.0  0.9749181774916031  0.13424809468697071  0.9618546052557329  1.0000
  H   H27       1.0  0.847183310461009  0.1373523580137519  0.9711534907829922  1.0000
  H   H28       1.0  0.6792934689421077  0.161285583379061  0.05336618277484506  1.0000
  Zn  Zn1       1.0  0.7590204738593901  0.12410324370653335  0.8366136917170853  1.0000
  Zn  Zn2       1.0  0.9125182904260094  0.12410058578625716  0.8366066828809837  1.0000
  C   C40       1.0  0.8445565231023059  0.12076325003466162  0.02466112495447037  1.0000
  C   C41       1.0  0.8269839784748223  0.12744188119853858  0.6485593179400486  1.0000
  C   C42       1.0  0.8437207259245538  0.3124581428610107  0.8277867446208831  1.0000
  C   C43       1.0  0.8278196722972182  0.9357457494397893  0.8454337842079368  1.0000
  O   O2        1.0  0.8871222800104159  0.12897265640954658  0.6868619922713978  1.0000
  O   O3        1.0  0.9009194648645822  0.11922967823610381  0.9863528543604605  1.0000
  O   O4        1.0  0.9002438138413839  0.27402573290296045  0.8273753724696313  1.0000
  O   O5        1.0  0.8877978752947548  0.9741766088056202  0.8458393968222979  1.0000
  O   O6        1.0  0.7837408366091637  0.2740272206891779  0.8273809777727222  1.0000
  O   O7        1.0  0.7844165386062372  0.11923240495672886  0.9863583737262009  1.0000
  O   O8        1.0  0.770619293242603  0.12897534212074901  0.6868662753221223  1.0000
  O   O9        1.0  0.7712948918843204  0.9741792874558998  0.8458437572099025  1.0000
