data_image0
_chemical_formula_structural       NC5NC3BrH3C6BrH5C6OCH6Zn2C4O8
_chemical_formula_sum              "N2 C25 Br2 H14 O9 Zn2"
_cell_length_a       13.839083392302014
_cell_length_b       9.276564384272257
_cell_length_c       9.273891588657152
_cell_angle_alpha    86.03089208269444
_cell_angle_beta     89.68090098130043
_cell_angle_gamma    90.61189963838827

_space_group_name_H-M_alt    "P 1"
_space_group_IT_number       1

loop_
  _space_group_symop_operation_xyz
  'x, y, z'

loop_
  _atom_site_type_symbol
  _atom_site_label
  _atom_site_symmetry_multiplicity
  _atom_site_fract_x
  _atom_site_fract_y
  _atom_site_fract_z
  _atom_site_occupancy
  N   N1        1.0  0.9265765330995213  0.5644996356746761  0.4087346605676505  1.0000
  C   C1        1.0  0.8541283015746421  0.5008750983488941  0.4112526999501619  1.0000
  C   C2        1.0  0.7638644160151467  0.4217041743600023  0.41438585385178417  1.0000
  C   C3        1.0  0.6768414994605871  0.4978837947989132  0.41137127371311144  1.0000
  C   C4        1.0  0.588271559158276  0.42317650275550744  0.4143275308643798  1.0000
  C   C5        1.0  0.4990626870100694  0.5017068889091176  0.41121976531843485  1.0000
  N   N2        1.0  0.427350358910479  0.5648391611012893  0.40872116841415007  1.0000
  C   C6        1.0  0.5866565210502097  0.2719781711463576  0.420310739642374  1.0000
  C   C7        1.0  0.673233542924375  0.19567731463112192  0.4233300259765426  1.0000
  C   C8        1.0  0.7619945104636858  0.2696706734045038  0.42040204071832005  1.0000
  Br  Br1       1.0  0.8786265068827355  0.15960973968046122  0.4247574523376716  1.0000
  H   H1        1.0  0.6780379275785842  0.6150497035336615  0.4067345938818354  1.0000
  H   H2        1.0  0.5185499172251317  0.21314129698952922  0.4226387601445074  1.0000
  H   H3        1.0  0.6712756642245856  0.07876054229479613  0.4279564695238389  1.0000
  C   C9        1.0  0.17405543366910403  0.1411897744321593  0.40909659439023205  1.0000
  C   C10       1.0  0.16215694698822802  0.2234922970343325  0.277357928303944  1.0000
  C   C11       1.0  0.15924670772323313  0.15732385866312248  0.14684952839036103  1.0000
  C   C12       1.0  0.16822259998396927  0.007911526252280643  0.14560170811178685  1.0000
  C   C13       1.0  0.17842612592289742  0.9238965503471056  0.2753483038655433  1.0000
  C   C14       1.0  0.1798805844502811  0.9881379866045851  0.40837168730733886  1.0000
  Br  Br2       1.0  0.1649537451805081  0.9179356679485436  0.9665213614383119  1.0000
  H   H4        1.0  0.14485830985456083  0.4058368255145761  0.6434331752741659  1.0000
  H   H5        1.0  0.15739747106868582  0.34012319727088225  0.27489043724575163  1.0000
  H   H6        1.0  0.15093272965242321  0.22263252045783874  0.04644850706943605  1.0000
  H   H7        1.0  0.18290842956125508  0.807631566302286  0.27224057097635534  1.0000
  H   H8        1.0  0.23235972711011477  0.6922665289586721  0.6328625971390505  1.0000
  C   C15       1.0  0.17852472127926158  0.5608456970030002  0.9854620592382788  1.0000
  C   C16       1.0  0.25807603588465217  0.621809813609635  0.053981503183841095  1.0000
  C   C17       1.0  0.3322203802835717  0.6935385892155539  0.9741084323496096  1.0000
  C   C18       1.0  0.3270792643382987  0.7046647786300702  0.8226584343801017  1.0000
  C   C19       1.0  0.24955201639950242  0.6428288550962287  0.7527974853114161  1.0000
  C   C20       1.0  0.17541127037971949  0.5684820395297975  0.8320062476012888  1.0000
  O   O1        1.0  0.40912059769045217  0.7527253773395344  0.0492623745299263  1.0000
  C   C21       1.0  0.4892138082866302  0.8286735810550167  0.9821189114817928  1.0000
  H   H9        1.0  0.9480767034420173  0.472117735571147  0.09656127807573678  1.0000
  H   H10       1.0  0.3831211456510484  0.7597698746282024  0.7576876736426942  1.0000
  H   H11       1.0  0.02168981293803074  0.5030295002028049  0.5566236461390819  1.0000
  H   H12       1.0  0.46394695874801917  0.9262432996595482  0.9176405102261728  1.0000
  H   H13       1.0  0.5290116621564742  0.7571302969422171  0.9117664148620127  1.0000
  H   H14       1.0  0.5389141907300392  0.863176742969394  0.06693162669563879  1.0000
  Zn  Zn1       1.0  0.07108898764139429  0.5645938241038888  0.40873910045299233  1.0000
  Zn  Zn2       1.0  0.28283777170971525  0.5647332594352468  0.4087285675942389  1.0000
  C   C22       1.0  0.1759581272923021  0.5612936925075194  0.6719962045555679  1.0000
  C   C23       1.0  0.17797095634319215  0.5680352133863418  0.14547160329130326  1.0000
  C   C24       1.0  0.17879565423616905  0.8279949526778752  0.4027649518800078  1.0000
  C   C25       1.0  0.17513334494521193  0.3013322212704517  0.4147029342995673  1.0000
  O   O2        1.0  0.2581426245171008  0.5704947043907398  0.19916827620017052  1.0000
  O   O3        1.0  0.25649888073651894  0.5589389380469869  0.6182911234590565  1.0000
  O   O4        1.0  0.2587891308586363  0.7743035913387855  0.40088498083833457  1.0000
  O   O5        1.0  0.25585230260789404  0.3551300603925118  0.4165743107418758  1.0000
  O   O6        1.0  0.09807438448378634  0.7741970231005422  0.40089335730136666  1.0000
  O   O7        1.0  0.09578414655635291  0.5588341017081973  0.6182994215853951  1.0000
  O   O8        1.0  0.09742789642907046  0.570389802166398  0.1991748414087764  1.0000
  O   O9        1.0  0.09513757404752421  0.355025148828519  0.41658098402551  1.0000
