data_image0
_chemical_formula_structural       NC5NC3BrH3C9H10C7NH4Zn2C4O8
_chemical_formula_sum              "N3 C28 Br1 H17 Zn2 O8"
_cell_length_a       13.839083392302014
_cell_length_b       10.297183801781404
_cell_length_c       9.275157849593905
_cell_angle_alpha    86.08426286032497
_cell_angle_beta     89.74163777479679
_cell_angle_gamma    90.02359494799444

_space_group_name_H-M_alt    "P 1"
_space_group_IT_number       1

loop_
  _space_group_symop_operation_xyz
  'x, y, z'

loop_
  _atom_site_type_symbol
  _atom_site_label
  _atom_site_symmetry_multiplicity
  _atom_site_fract_x
  _atom_site_fract_y
  _atom_site_fract_z
  _atom_site_occupancy
  N   N1        1.0  0.9146760120181997  0.40844344077803024  0.409634094388866  1.0000
  C   C1        1.0  0.8426675467286727  0.3511313019789031  0.4121269714561273  1.0000
  C   C2        1.0  0.7529508823125004  0.27981518431871893  0.4152288147661205  1.0000
  C   C3        1.0  0.665401420329846  0.34843677554468244  0.41224436217987415  1.0000
  C   C4        1.0  0.5773478488358281  0.2811414381674868  0.41517107406686193  1.0000
  C   C5        1.0  0.48759618290276924  0.3518805678677017  0.4120943657848153  1.0000
  N   N2        1.0  0.41544749102542805  0.40874928074609285  0.4096207365214035  1.0000
  C   C6        1.0  0.5767778774941269  0.14494398737352987  0.42109448685915396  1.0000
  C   C7        1.0  0.6638822827023168  0.07621318824875112  0.42408359771116433  1.0000
  C   C8        1.0  0.7521318160784085  0.14286542402086022  0.42118487536685956  1.0000
  Br  Br1       1.0  0.8695245420136317  0.043723995419529205  0.42549676002124065  1.0000
  H   H1        1.0  0.665788010022372  0.4539782712959237  0.4076540192126678  1.0000
  H   H2        1.0  0.5090779476871514  0.0919445117197959  0.4233992385763916  1.0000
  H   H3        1.0  0.6627325201554822  0.9708961110526971  0.4286638029922514  1.0000
  C   C9        1.0  0.1650691379253979  0.027122564436063316  0.4098316255906495  1.0000
  C   C10       1.0  0.1627117054668692  0.035665301211127425  0.25818252104282147  1.0000
  C   C11       1.0  0.16150370037433004  0.9234255075482208  0.18048825009984232  1.0000
  C   C12       1.0  0.16270216628427733  0.8004891026819835  0.2575947515796029  1.0000
  C   C13       1.0  0.1650635883676712  0.7900602520587228  0.4094356700573376  1.0000
  C   C14       1.0  0.16623074201107202  0.9038445011636365  0.48456292427455216  1.0000
  C   C15       1.0  0.15895370335920211  0.942097275231569  0.01646903536610256  1.0000
  C   C16       1.0  0.10261659914587162  0.8426498867299693  0.9362472401378312  1.0000
  C   C17       1.0  0.2127151115014323  0.8429856130530073  0.9316662428053273  1.0000
  H   H4        1.0  0.1659867074240493  0.35136923353872024  0.4682668894991908  1.0000
  H   H5        1.0  0.16180180938633826  0.13038563438853723  0.19963759996212627  1.0000
  H   H6        1.0  0.16181519360300145  0.7123949880083902  0.20067561169215462  1.0000
  H   H7        1.0  0.16804906634172115  0.896526157189061  0.6015633929686114  1.0000
  H   H8        1.0  0.1695108139133652  0.5631466319851632  0.69622041046233  1.0000
  H   H9        1.0  0.1581349766124167  0.04235491806346703  0.9637503763608057  1.0000
  H   H10       1.0  0.07017385488228677  0.7595616104815792  0.0018316024623257158  1.0000
  H   H11       1.0  0.0688357219696607  0.8826175426772339  0.8342865369036421  1.0000
  H   H12       1.0  0.2471512989024789  0.7601020787572268  0.9944686475674893  1.0000
  H   H13       1.0  0.24328197360335335  0.8831471073990748  0.8270268185573841  1.0000
  C   C18       1.0  0.1663485460916423  0.40492026986594  0.9864377639155206  1.0000
  C   C19       1.0  0.24963363822891393  0.44731977513356425  0.056109602335298714  1.0000
  C   C20       1.0  0.3279619093957775  0.4999310823546686  0.9762020743676518  1.0000
  C   C21       1.0  0.3239182197213899  0.5109790925233266  0.8255375002579779  1.0000
  C   C22       1.0  0.24261975573506445  0.46752887576216967  0.7545246129951271  1.0000
  C   C23       1.0  0.16378418997423738  0.4122625094379629  0.832829591673772  1.0000
  C   C24       1.0  0.4121940534876378  0.5441402544624574  0.04918054089226542  1.0000
  N   N3        1.0  0.4798951294769367  0.5796725088940771  0.10784291926084766  1.0000
  H   H14       1.0  0.931242377847841  0.3609769021284391  0.09430436093623973  1.0000
  H   H15       1.0  0.38408813757523913  0.5521065263103344  0.7626917781393847  1.0000
  H   H16       1.0  0.24240594219817857  0.47435839871731883  0.6374566346847015  1.0000
  H   H17       1.0  0.00650118516023257  0.377222422236857  0.5554454104953686  1.0000
  Zn  Zn1       1.0  0.05918782134379241  0.40852828893538456  0.4096385700248634  1.0000
  Zn  Zn2       1.0  0.27093563808584853  0.40865388768667743  0.4096280932305602  1.0000
  C   C25       1.0  0.16426676717356314  0.4056995927772229  0.6728460735534026  1.0000
  C   C26       1.0  0.16585900409514176  0.41148422551378255  0.14642073018347124  1.0000
  C   C27       1.0  0.16507704925766897  0.6457989655397545  0.4037677748358013  1.0000
  C   C28       1.0  0.16504864953490817  0.1713832926430574  0.4154991065470277  1.0000
  O   O1        1.0  0.24605190229103235  0.4137291457630841  0.20010850217764317  1.0000
  O   O2        1.0  0.244785563637977  0.4035490154832384  0.6191499355753964  1.0000
  O   O3        1.0  0.2454387888748275  0.597432307816494  0.4018673049399666  1.0000
  O   O4        1.0  0.24539860512630887  0.21984586174239892  0.417391024757502  1.0000
  O   O5        1.0  0.08472478204421718  0.5973363148381512  0.4018756384939159  1.0000
  O   O6        1.0  0.08407155702437974  0.4034545825715754  0.6191581914793842  1.0000
  O   O7        1.0  0.08533790099158046  0.41363465255267595  0.20011502545638793  1.0000
  O   O8        1.0  0.08468460349561502  0.21975136017790775  0.41739765608781243  1.0000
