data_image0
_chemical_formula_structural       NC5NC3OH4C7NH5C7NH4Zn2C4O8
_chemical_formula_sum              "N4 C26 O9 H13 Zn2"
_cell_length_a       13.84702359539666
_cell_length_b       9.275154477615127
_cell_length_c       9.275157849593905
_cell_angle_alpha    86.33461140486662
_cell_angle_beta     89.7265770318806
_cell_angle_gamma    89.43463511314383

_space_group_name_H-M_alt    "P 1"
_space_group_IT_number       1

loop_
  _space_group_symop_operation_xyz
  'x, y, z'

loop_
  _atom_site_type_symbol
  _atom_site_label
  _atom_site_symmetry_multiplicity
  _atom_site_fract_x
  _atom_site_fract_y
  _atom_site_fract_z
  _atom_site_occupancy
  N   N1        1.0  0.9038294995846046  0.5626828845747376  0.41622729903492894  1.0000
  C   C1        1.0  0.8315478217750771  0.5546223021808503  0.4792405259742496  1.0000
  C   C2        1.0  0.7415300582930306  0.5445851743068343  0.5577052705773624  1.0000
  C   C3        1.0  0.6541114319576895  0.5542816702174508  0.4819026945035014  1.0000
  C   C4        1.0  0.5660864375794952  0.5446978319417247  0.5568241520093855  1.0000
  C   C5        1.0  0.4764058008530909  0.5546811352297922  0.478780291825325  1.0000
  N   N2        1.0  0.40431418455043494  0.5627069468167447  0.41603925024055344  1.0000
  C   C6        1.0  0.5654742262690816  0.5253885665713514  0.7077733939301956  1.0000
  C   C7        1.0  0.6525124779997504  0.5156830062195172  0.7836439491677702  1.0000
  C   C8        1.0  0.7408518426718056  0.5252050951835954  0.7092068144704577  1.0000
  O   O1        1.0  0.8276101743942813  0.5154829832255713  0.7852086764183691  1.0000
  H   H1        1.0  0.6545903000520881  0.5692409455295446  0.3649602110333021  1.0000
  H   H2        1.0  0.4977907497059259  0.5178455725487432  0.7667400284801611  1.0000
  H   H3        1.0  0.6512557603777405  0.5007534089981183  0.9003551947515264  1.0000
  H   H4        1.0  0.8289037514062425  0.5015102608791895  0.8944387040114486  1.0000
  C   C9        1.0  0.15687619088747606  0.1392896912682961  0.41446449739269287  1.0000
  C   C10       1.0  0.1307610704731823  0.22124385546050365  0.2874061372434762  1.0000
  C   C11       1.0  0.09677001384195805  0.15404495072595825  0.16708172755060424  1.0000
  C   C12       1.0  0.08833265527769041  0.003975191779515216  0.17239865772081964  1.0000
  C   C13       1.0  0.11535179158800979  0.9207855035376077  0.2965602602936868  1.0000
  C   C14       1.0  0.1512767558613557  0.9860891801449202  0.4178144726560604  1.0000
  C   C15       1.0  0.06937481774696841  0.23956611734143007  0.03849234560660286  1.0000
  N   N3        1.0  0.04735668748032884  0.3083095468424839  0.9351394201758142  1.0000
  H   H5        1.0  0.1745076089651858  0.21936826167691567  0.7682137181736093  1.0000
  H   H6        1.0  0.134718237742532  0.3381622667866728  0.2831285073360328  1.0000
  H   H7        1.0  0.061693815372277694  0.9509566897223286  0.07992198527970795  1.0000
  H   H8        1.0  0.11028108155579286  0.8043164423502688  0.29643533473707384  1.0000
  H   H9        1.0  0.16725019916141326  0.6896022652847433  0.6548349495508659  1.0000
  C   C16       1.0  0.15538485051993836  0.5586139499052842  0.9929250886209987  1.0000
  C   C17       1.0  0.23831174102695352  0.6056215390018864  0.0627757851309747  1.0000
  C   C18       1.0  0.3162097541525346  0.6639665285745169  0.983098997611187  1.0000
  C   C19       1.0  0.31208735807437193  0.6762314778360118  0.8324900900590539  1.0000
  C   C20       1.0  0.23115367064049022  0.6280564323580893  0.7612924867052594  1.0000
  C   C21       1.0  0.1527681181501599  0.5667648602281383  0.8393538677367827  1.0000
  C   C22       1.0  0.4000698899245657  0.7129821058663683  0.05626487395338442  1.0000
  N   N4        1.0  0.46747197087814407  0.752377413414046  0.11507787888232392  1.0000
  H   H10       1.0  0.9207344771899388  0.5099884115386406  0.10065868445575711  1.0000
  H   H11       1.0  0.37192153655446125  0.7218417273860687  0.7698251163593485  1.0000
  H   H12       1.0  0.23088990438501883  0.635636788152347  0.6442581150994645  1.0000
  H   H13       1.0  0.9958314055013444  0.527972235632235  0.5618530068553237  1.0000
  Zn  Zn1       1.0  0.04825856670776085  0.562686048546166  0.4161813269938792  1.0000
  Zn  Zn2       1.0  0.2598851350165048  0.5626920985011314  0.416096937336125  1.0000
  C   C23       1.0  0.15329854057727466  0.5594802467138547  0.679337957292186  1.0000
  C   C24       1.0  0.15484745963557756  0.5658997209979699  0.15294045476579443  1.0000
  C   C25       1.0  0.1523479480669283  0.825970727478861  0.41143820822288757  1.0000
  C   C26       1.0  0.15579799114973047  0.29940750868400245  0.42084027384677225  1.0000
  O   O2        1.0  0.23497832771179983  0.5683408980120688  0.20661102308292792  1.0000
  O   O3        1.0  0.2337873496169629  0.5570425697681678  0.625602920008429  1.0000
  O   O4        1.0  0.2330186468770448  0.7722370176178295  0.4092719835623398  1.0000
  O   O5        1.0  0.23574695850377067  0.35314645943399103  0.42294185153957536  1.0000
  O   O6        1.0  0.07239667100274684  0.7722316876127382  0.4093364128116521  1.0000
  O   O7        1.0  0.07316536252110994  0.5570389713114696  0.6256672792672864  1.0000
  O   O8        1.0  0.0743563463691832  0.5683372326252669  0.20667364941861838  1.0000
  O   O9        1.0  0.07512497689135267  0.35314278477503774  0.42300458588593126  1.0000
