data_image0
_chemical_formula_structural       NC5NC3OH4C9H8C6H6Zn2C4O8
_chemical_formula_sum              "N2 C27 O9 H18 Zn2"
_cell_length_a       13.84702359539666
_cell_length_b       9.275152443626249
_cell_length_c       10.681121600428288
_cell_angle_alpha    85.36323627709002
_cell_angle_beta     89.98558129558303
_cell_angle_gamma    90.5743638874884

_space_group_name_H-M_alt    "P 1"
_space_group_IT_number       1

loop_
  _space_group_symop_operation_xyz
  'x, y, z'

loop_
  _atom_site_type_symbol
  _atom_site_label
  _atom_site_symmetry_multiplicity
  _atom_site_fract_x
  _atom_site_fract_y
  _atom_site_fract_z
  _atom_site_occupancy
  N   N1        1.0  0.9199658442392086  0.5788409605528115  0.6136339776285121  1.0000
  C   C1        1.0  0.8477634414862173  0.5701685951732933  0.6684441699737684  1.0000
  C   C2        1.0  0.7578443920943038  0.5593696685752418  0.7366944081332798  1.0000
  C   C3        1.0  0.6703303996597545  0.5698021166890902  0.670759779138955  1.0000
  C   C4        1.0  0.5823996621510158  0.559490880785358  0.7359279935475347  1.0000
  C   C5        1.0  0.4926208410296418  0.5702318965220137  0.668043849162299  1.0000
  N   N2        1.0  0.4204502927230825  0.5788668485276198  0.6134704088980254  1.0000
  C   C6        1.0  0.5819773555005673  0.5387160790098515  0.8672267285587403  1.0000
  C   C7        1.0  0.6691110539395783  0.528273906246681  0.9332204895951022  1.0000
  C   C8        1.0  0.7573567737830615  0.5385186907618316  0.8684735477417906  1.0000
  O   O1        1.0  0.8442107206726134  0.5280586917023165  0.9345815204583251  1.0000
  H   H1        1.0  0.6706621475385852  0.5858967635664347  0.5690408167366594  1.0000
  H   H2        1.0  0.5143680624671603  0.5306005895414296  0.9185171124641053  1.0000
  H   H3        1.0  0.6680011669311977  0.5122111825595802  0.03473831592453713  1.0000
  H   H4        1.0  0.8456417148784682  0.5130254764937365  0.029592031251902795  1.0000
  C   C9        1.0  0.16736383483756767  0.15522146050390462  0.6148316253993518  1.0000
  C   C10       1.0  0.1325260358179059  0.23795905042205856  0.5084525306833998  1.0000
  C   C11       1.0  0.10666508946852105  0.1725163585864038  0.4000786062898867  1.0000
  C   C12       1.0  0.11523587680279168  0.023174862296469805  0.3959379702526524  1.0000
  C   C13       1.0  0.14818521389498776  0.9387490278218034  0.5014185448714892  1.0000
  C   C14       1.0  0.17306145769319572  0.0024752735993258655  0.6122835559788995  1.0000
  C   C15       1.0  0.08907156642374495  0.9560239913469495  0.2837097542667366  1.0000
  C   C16       1.0  0.06716507047023823  0.8997674967084083  0.18973621885744743  1.0000
  C   C17       1.0  0.040585867773658135  0.8314981913090257  0.07571581457870291  1.0000
  H   H5        1.0  0.30613031098019017  0.23688010413188865  0.8648885909280126  1.0000
  H   H6        1.0  0.12743889128218222  0.3544762733019163  0.5080602741166416  1.0000
  H   H7        1.0  0.08084501925777235  0.23875478141040277  0.31898064371670243  1.0000
  H   H8        1.0  0.15225124311601437  0.8224392078727855  0.4979237144474895  1.0000
  H   H9        1.0  0.26339295674134844  0.7071805588921438  0.7833156221342064  1.0000
  H   H10       1.0  0.05824036180463789  0.714777276070335  0.08740938004705501  1.0000
  H   H11       1.0  0.961984327151754  0.8440766905321176  0.058597381941301055  1.0000
  H   H12       1.0  0.08136918100930846  0.8838488272904086  0.9946418084207975  1.0000
  C   C18       1.0  0.1702126635704222  0.5788483304662775  0.24581237860635485  1.0000
  C   C19       1.0  0.10055064451035589  0.4986124359772093  0.1846537730308211  1.0000
  C   C20       1.0  0.10055058483751966  0.49861252847510595  0.05377163281944798  1.0000
  C   C21       1.0  0.17021258812742035  0.578848401178623  0.9813028140948421  1.0000
  C   C22       1.0  0.23981710837403064  0.6590178041517412  0.04246105792801224  1.0000
  C   C23       1.0  0.23981709586794334  0.6590177817815186  0.1733533566623711  1.0000
  H   H13       1.0  0.24065943626541686  0.6599888661054556  0.5388032639634985  1.0000
  H   H14       1.0  0.04594626529528645  0.4357197497587437  0.23789745134784449  1.0000
  H   H15       1.0  0.045946245582886736  0.43571981766350776  0.009393421924684071  1.0000
  H   H16       1.0  0.2944286187329068  0.7219187780037162  0.9892616877430656  1.0000
  H   H17       1.0  0.29442856973592124  0.7219187274298586  0.21768605539546404  1.0000
  H   H18       1.0  0.24065973429102705  0.6599883635119383  0.6768742396630936  1.0000
  Zn  Zn1       1.0  0.0643948173146911  0.5788445692966218  0.613594007721912  1.0000
  Zn  Zn2       1.0  0.2760212162074229  0.5788514358474866  0.6135206344636364  1.0000
  C   C24       1.0  0.17017182573541678  0.5731013329364589  0.8422966734579502  1.0000
  C   C25       1.0  0.17024653098095577  0.5845964924949711  0.38481808536519485  1.0000
  C   C26       1.0  0.17197950889709415  0.8423262392661548  0.607774924036912  1.0000
  C   C27       1.0  0.1684387639504379  0.31536985294674147  0.6193399067889689  1.0000
  O   O2        1.0  0.25056897034948644  0.5865219403800903  0.4314418445446375  1.0000
  O   O3        1.0  0.2504689191063667  0.571180008308642  0.7956168684550794  1.0000
  O   O4        1.0  0.2519275634883691  0.7885825249484573  0.6062388923815504  1.0000
  O   O5        1.0  0.2491102538231336  0.36911943405769687  0.6208197267160271  1.0000
  O   O6        1.0  0.0913057074812873  0.7885765710856394  0.606294915487968  1.0000
  O   O7        1.0  0.08984707475043233  0.5711757876635848  0.7956728195772078  1.0000
  O   O8        1.0  0.08994712571980301  0.5865176694636995  0.43149629019534635  1.0000
  O   O9        1.0  0.08848840912010769  0.36911515282311114  0.6208742662873223  1.0000
