data_image0
_chemical_formula_structural       NC9NC3OH6C6NCOCH9C8NH11Zn2C4O8
_chemical_formula_sum              "N4 C32 O10 H26 Zn2"
_cell_length_a       15.78231758774541
_cell_length_b       10.300268703208218
_cell_length_c       9.275652972338538
_cell_angle_alpha    85.93999847967777
_cell_angle_beta     90.52078220685846
_cell_angle_gamma    89.61162997741629

_space_group_name_H-M_alt    "P 1"
_space_group_IT_number       1

loop_
  _space_group_symop_operation_xyz
  'x, y, z'

loop_
  _atom_site_type_symbol
  _atom_site_label
  _atom_site_symmetry_multiplicity
  _atom_site_fract_x
  _atom_site_fract_y
  _atom_site_fract_z
  _atom_site_occupancy
  N   N1        1.0  0.7904678248064616  0.4037757498560961  0.4127591929758479  1.0000
  C   C1        1.0  0.7420743474958984  0.32187524150412483  0.43948541171103095  1.0000
  C   C2        1.0  0.6819920086264857  0.22021680522924858  0.4726595344206954  1.0000
  C   C3        1.0  0.7018702498229058  0.09251690420010594  0.5142434426862548  1.0000
  C   C4        1.0  0.6252445529705968  0.030629024302565977  0.5344793757972517  1.0000
  C   C5        1.0  0.5633044959015567  0.12514183810253596  0.5037483408554194  1.0000
  C   C6        1.0  0.470243439939533  0.10766846779641459  0.5095318896673993  1.0000
  C   C7        1.0  0.41631681700295714  0.2148095015495015  0.4745112430068572  1.0000
  C   C8        1.0  0.3281349048378941  0.20048180398029403  0.47926156194099884  1.0000
  C   C9        1.0  0.2735064622648973  0.31074010736998847  0.4432128187952962  1.0000
  N   N2        1.0  0.22959810693807442  0.39937354955855375  0.41423285120127984  1.0000
  C   C10       1.0  0.29319860860588665  0.07885362164394394  0.5190869060244592  1.0000
  C   C11       1.0  0.34619394533179965  0.9719341276669528  0.554039984365874  1.0000
  C   C12       1.0  0.43419086403141055  0.9858682120234967  0.5494187526531822  1.0000
  O   O1        1.0  0.5995735214964752  0.2371511659157375  0.46721990129486574  1.0000
  H   H1        1.0  0.7644031311945833  0.04945158145339046  0.5282105909579962  1.0000
  H   H2        1.0  0.6166843314954981  0.9288684085855455  0.5676333989438256  1.0000
  H   H3        1.0  0.44276166448900095  0.3094577627532076  0.44351482326126557  1.0000
  H   H4        1.0  0.22510311980648584  0.06671879238096312  0.5231078234801547  1.0000
  H   H5        1.0  0.31901768615229475  0.8779329338872904  0.5848249666427396  1.0000
  H   H6        1.0  0.4734208353412491  0.9011804975070742  0.5771132086689683  1.0000
  C   C13       1.0  0.01012313031860068  0.020226160543310945  0.4135048323673802  1.0000
  C   C14       1.0  0.023740613182100957  0.02857996495871573  0.263720996686603  1.0000
  C   C15       1.0  0.03175971248339504  0.9154793091740304  0.188556603503641  1.0000
  C   C16       1.0  0.023549086710861863  0.7934225810904066  0.26375631190237914  1.0000
  C   C17       1.0  0.009950929184708848  0.7829131797737687  0.4134996693816364  1.0000
  C   C18       1.0  0.003629115019127214  0.8969095792552424  0.48767201745756705  1.0000
  N   N3        1.0  0.04438069380058439  0.9224529569072224  0.034837699866255845  1.0000
  C   C19       1.0  0.09377937892400284  0.020602382913020637  0.9575551821049215  1.0000
  O   O2        1.0  0.14192036606691993  0.09351313612988421  0.02427584300682772  1.0000
  C   C20       1.0  0.09309506639755738  0.030529899622899752  0.7960894626529864  1.0000
  H   H7        1.0  0.0037121491000076073  0.34450908348385423  0.47011009095203904  1.0000
  H   H8        1.0  0.026430323194452043  0.12305167812481033  0.20509333096832716  1.0000
  H   H9        1.0  0.028546143981486916  0.706657513924732  0.2047727306155254  1.0000
  H   H10       1.0  0.9931494782455376  0.8896570306140865  0.603202157662496  1.0000
  H   H11       1.0  0.003543895865281805  0.4515575434751977  0.46989623693250104  1.0000
  H   H12       1.0  0.02078335774309137  0.8469192427653534  0.9768449035864588  1.0000
  H   H13       1.0  0.028061878505003947  0.013902473566542733  0.7550070426078501  1.0000
  H   H14       1.0  0.11391492944317044  0.12872985085685462  0.7541308833353062  1.0000
  H   H15       1.0  0.1366537083718389  0.9561305095206685  0.7565585260802338  1.0000
  C   C21       1.0  0.008151259176201622  0.39905756334792164  0.9902252089098278  1.0000
  C   C22       1.0  0.9531715523206772  0.4845545185907842  0.056187324869040774  1.0000
  C   C23       1.0  0.9048805955880541  0.5775622250773012  0.9733246685063658  1.0000
  C   C24       1.0  0.9104250581343475  0.5838333702368748  0.822557860571413  1.0000
  C   C25       1.0  0.9635390886201565  0.49841292422495415  0.7551814060005473  1.0000
  C   C26       1.0  0.011922840686738873  0.4040817630519106  0.8367792992927976  1.0000
  C   C27       1.0  0.8453890448535097  0.6670016882839194  0.04566821814227251  1.0000
  C   C28       1.0  0.7582797711638838  0.6044250084441067  0.06616363237928313  1.0000
  N   N4        1.0  0.7007900464887933  0.6927607811212733  0.13417807191195408  1.0000
  H   H16       1.0  0.07030280907747663  0.20549399798267642  0.28704217520829994  1.0000
  H   H17       1.0  0.9491418305284097  0.4809819179646338  0.1730013541315836  1.0000
  H   H18       1.0  0.8728366957252417  0.6541578816087728  0.7568481012888486  1.0000
  H   H19       1.0  0.965067648773437  0.5039748764783782  0.6381666285669532  1.0000
  H   H20       1.0  0.12815197853791216  0.28397629998655494  0.5666899205897127  1.0000
  H   H21       1.0  0.8719200579545522  0.6895538628810207  0.1524714171128594  1.0000
  H   H22       1.0  0.8385842657709552  0.7608256627893093  0.9793353232924424  1.0000
  H   H23       1.0  0.7317931189036858  0.5829157892155712  0.9589434216664094  1.0000
  H   H24       1.0  0.7642822138217445  0.5113562020167066  0.13437700582336065  1.0000
  H   H25       1.0  0.640951494253271  0.6497517392121179  0.1383803527252414  1.0000
  H   H26       1.0  0.7206303631937336  0.6990616991985699  0.24136454217555217  1.0000
  Zn  Zn1       1.0  0.9171913726848762  0.4025019505118066  0.413192775844174  1.0000
  Zn  Zn2       1.0  0.10287458545501918  0.40063681993031314  0.4138110513371338  1.0000
  C   C29       1.0  0.011209186456552658  0.3979586920000777  0.6767624847746789  1.0000
  C   C30       1.0  0.008858799598623792  0.4051816974463225  0.15024149062069284  1.0000
  C   C31       1.0  0.009953539216103188  0.6387150344386066  0.4077567785031124  1.0000
  C   C32       1.0  0.01011438417297916  0.1644237958812984  0.4192472735389883  1.0000
  O   O3        1.0  0.07956206945696986  0.4065235400209646  0.20417904889529015  1.0000
  O   O4        1.0  0.08143517704625669  0.395200276337695  0.6232937683724387  1.0000
  O   O5        1.0  0.08042028278423174  0.5896140860729271  0.40606975412603075  1.0000
  O   O6        1.0  0.08057689987430144  0.21210973957048807  0.4214029548556158  1.0000
  O   O7        1.0  0.9394889949009925  0.5910290315094777  0.40560087210712337  1.0000
  O   O8        1.0  0.9405038884645103  0.39661678153858726  0.6228248094882323  1.0000
  O   O9        1.0  0.9386307732210432  0.4079399896827274  0.2037083570305969  1.0000
  O   O10       1.0  0.9396456041184672  0.21352618058534165  0.42093237105843584  1.0000
