data_image0
_chemical_formula_structural       NC10NC2SCH8C6NO2H5C7OIH5Zn2C4O8
_chemical_formula_sum              "N3 C30 S1 H18 O11 I1 Zn2"
_cell_length_a       19.276177435061857
_cell_length_b       10.299485455225872
_cell_length_c       10.297413674417344
_cell_angle_alpha    85.55272828315375
_cell_angle_beta     90.23955368145704
_cell_angle_gamma    89.88557879031065

_space_group_name_H-M_alt    "P 1"
_space_group_IT_number       1

loop_
  _space_group_symop_operation_xyz
  'x, y, z'

loop_
  _atom_site_type_symbol
  _atom_site_label
  _atom_site_symmetry_multiplicity
  _atom_site_fract_x
  _atom_site_fract_y
  _atom_site_fract_z
  _atom_site_occupancy
  N   N1        1.0  0.6530283189457086  0.418726794373067  0.5721938373772262  1.0000
  C   C1        1.0  0.5930452990183341  0.4195798734321186  0.5763129496924355  1.0000
  C   C2        1.0  0.5183500356222255  0.4207018427498932  0.5814471464770374  1.0000
  C   C3        1.0  0.4834603496169949  0.3078044923417067  0.5912743712547446  1.0000
  C   C4        1.0  0.406969988612623  0.30347341880671297  0.598720893979821  1.0000
  C   C5        1.0  0.3692752663100961  0.40573754796563755  0.6318930759319852  1.0000
  C   C6        1.0  0.2924657123342921  0.4070348708959382  0.6195348150173725  1.0000
  C   C7        1.0  0.25922135872254565  0.3507551111329048  0.515573655884503  1.0000
  C   C8        1.0  0.18691985357176652  0.35337303866177594  0.5042328218235141  1.0000
  C   C9        1.0  0.1468341453586643  0.4124248689936729  0.5962030157614331  1.0000
  C   C10       1.0  0.07239682282094101  0.41506849382666916  0.5844209306802148  1.0000
  N   N2        1.0  0.012554771951459404  0.41719370821925317  0.5749490418049619  1.0000
  C   C11       1.0  0.1793324147365399  0.4691560926588272  0.6995006760828453  1.0000
  C   C12       1.0  0.25163326251161827  0.4667582176222831  0.7110061730042734  1.0000
  S   S1        1.0  0.4126960543737674  0.5426002382335202  0.6964233221881453  1.0000
  C   C13       1.0  0.48025776048886926  0.5487367340373255  0.5732672874234008  1.0000
  H   H1        1.0  0.5112781869640664  0.21632204388602538  0.5902637739961301  1.0000
  H   H2        1.0  0.38157369604560126  0.21548969436038748  0.5724985452149828  1.0000
  H   H3        1.0  0.2890915952054599  0.3063805282810388  0.4419168882876672  1.0000
  H   H4        1.0  0.1623212194557133  0.3097623725534113  0.42345531367135414  1.0000
  H   H5        1.0  0.1487940795141227  0.5151179299889914  0.7712952885339626  1.0000
  H   H6        1.0  0.2754470084968711  0.5103070070169367  0.7924781355670956  1.0000
  H   H7        1.0  0.45644767344648757  0.5672802547824276  0.47510613875633784  1.0000
  H   H8        1.0  0.5161502435257916  0.6300807458418849  0.5900136355575385  1.0000
  C   C14       1.0  0.8327962274582766  0.03658370408052103  0.5735779417491191  1.0000
  C   C15       1.0  0.9022556719578526  0.032095095442357106  0.6154310461516592  1.0000
  C   C16       1.0  0.9374778029852394  0.91274613072322  0.6366541625416602  1.0000
  C   C17       1.0  0.902248988062994  0.7968256490658496  0.6154268498876565  1.0000
  C   C18       1.0  0.832793552118581  0.7993267829331113  0.5735762732944665  1.0000
  C   C19       1.0  0.7984617019384694  0.9196868945957276  0.552889581742861  1.0000
  N   N3        1.0  0.008713767357312774  0.9095588543354002  0.6795775479250381  1.0000
  O   O1        1.0  0.0431707567680466  0.023057633037695476  0.7003398817933366  1.0000
  O   O2        1.0  0.04040189091254387  0.8039012996666625  0.6986713318620641  1.0000
  H   H9        1.0  0.8062669681754719  0.36576237783259  0.557592609496111  1.0000
  H   H10       1.0  0.9290547420711636  0.12171653270818417  0.6315789070764474  1.0000
  H   H11       1.0  0.9290714622686677  0.7045004241935172  0.6315889054283819  1.0000
  H   H12       1.0  0.7448865916289978  0.9223902727441169  0.5206076309899346  1.0000
  H   H13       1.0  0.8062761151094431  0.47282259036170277  0.55759799773345  1.0000
  C   C20       1.0  0.8327406694581178  0.41800786968435233  0.19212425100917807  1.0000
  C   C21       1.0  0.7679107132447505  0.4808394274894617  0.1855562098110266  1.0000
  C   C22       1.0  0.7349846057784226  0.512750488040373  0.0651050992027995  1.0000
  C   C23       1.0  0.7680357010845223  0.4807181530268825  0.9503693345526317  1.0000
  C   C24       1.0  0.832849100709252  0.4179025944213408  0.9550299871718521  1.0000
  C   C25       1.0  0.8648045591901093  0.3869322528640977  0.07636495247664987  1.0000
  C   C26       1.0  0.6664290903583523  0.5791926356069788  0.06069840577690422  1.0000
  O   O3        1.0  0.6377369103567263  0.6069997223097665  0.1647424300778375  1.0000
  I   I1        1.0  0.6122945576118832  0.6316594652701837  0.8848328021428791  1.0000
  H   H14       1.0  0.9551448905083828  0.2993757597921354  0.4117393376781906  1.0000
  H   H15       1.0  0.7429974382538745  0.5049848139913806  0.27467722477203216  1.0000
  H   H16       1.0  0.7436202209330618  0.5043807614003573  0.8568755297573234  1.0000
  H   H17       1.0  0.9147783052826157  0.33849899493657487  0.08062093112149049  1.0000
  H   H18       1.0  0.8579404280986815  0.3935850752839745  0.6292782224973617  1.0000
  Zn  Zn1       1.0  0.7567798980624167  0.41828090229649173  0.5729964380240982  1.0000
  Zn  Zn2       1.0  0.9088032157033856  0.41762897669769566  0.5741571049773682  1.0000
  C   C27       1.0  0.8328270631962337  0.41274872740896074  0.810824428419938  1.0000
  C   C28       1.0  0.8327577106717908  0.4231627831009103  0.3363292547468426  1.0000
  C   C29       1.0  0.8327897324419716  0.6551528247972522  0.5684002312682901  1.0000
  C   C30       1.0  0.8327949895664825  0.18075712559180457  0.578753520759766  1.0000
  O   O4        1.0  0.8904554866473888  0.4246397509125415  0.3851662384026511  1.0000
  O   O5        1.0  0.8905114676803334  0.41077598346191607  0.762867990199521  1.0000
  O   O6        1.0  0.8904805450995806  0.6065203608699214  0.5671087298673614  1.0000
  O   O7        1.0  0.8904863573390072  0.22889538303084017  0.5809254009426352  1.0000
  O   O8        1.0  0.7750967045486971  0.6070144961872324  0.5662281416559201  1.0000
  O   O9        1.0  0.7751276271109216  0.41127167912392637  0.761987332723893  1.0000
  O   O10       1.0  0.7750716459023355  0.4251354015329716  0.38428401918316424  1.0000
  O   O11       1.0  0.7751025166049897  0.2293910243488515  0.5800432791124124  1.0000
