data_image0
_chemical_formula_structural       NC9NC3SH6C6NCOCH7C6NO2H3Zn2C4O8
_chemical_formula_sum              "N4 C30 S1 H16 O11 Zn2"
_cell_length_a       16.77567553997237
_cell_length_b       10.300268703208216
_cell_length_c       9.273395971720358
_cell_angle_alpha    84.96326544088495
_cell_angle_beta     90.29524247886945
_cell_angle_gamma    90.87327597949842

_space_group_name_H-M_alt    "P 1"
_space_group_IT_number       1

loop_
  _space_group_symop_operation_xyz
  'x, y, z'

loop_
  _atom_site_type_symbol
  _atom_site_label
  _atom_site_symmetry_multiplicity
  _atom_site_fract_x
  _atom_site_fract_y
  _atom_site_fract_z
  _atom_site_occupancy
  N   N1        1.0  0.7520871214925803  0.4547004159432709  0.41544739483425364  1.0000
  C   C1        1.0  0.6972800042392532  0.5035922611910666  0.4616979020800829  1.0000
  C   C2        1.0  0.6292635767190428  0.5642638131212412  0.5190912430028329  1.0000
  C   C3        1.0  0.6312702795200983  0.651358574566584  0.624768886151285  1.0000
  C   C4        1.0  0.5555878439728432  0.6945012690315475  0.6598046151357391  1.0000
  C   C5        1.0  0.4936771891412667  0.6411938826355965  0.5812998823462343  1.0000
  C   C6        1.0  0.4071687977561436  0.6671442810085406  0.5933660754795069  1.0000
  C   C7        1.0  0.3504355316763367  0.5881673442577798  0.5285612773680219  1.0000
  C   C8        1.0  0.2687784622564054  0.612118391422864  0.5394526155448625  1.0000
  C   C9        1.0  0.2113798711773849  0.5304875328848626  0.47309633702747816  1.0000
  N   N2        1.0  0.1652484147744185  0.46486801782108467  0.4197556931957888  1.0000
  C   C10       1.0  0.24302495977708116  0.7153615782546918  0.6149696922548704  1.0000
  C   C11       1.0  0.298667083292721  0.7945021203357752  0.679261385089063  1.0000
  C   C12       1.0  0.3801660833689599  0.7709112362010568  0.6686975808336244  1.0000
  S   S1        1.0  0.5343997973534155  0.5401645566766577  0.46888801551367304  1.0000
  H   H1        1.0  0.6856136030593111  0.6827413693526536  0.6756511937648536  1.0000
  H   H2        1.0  0.5472238202902343  0.7616331484742276  0.7415011811516428  1.0000
  H   H3        1.0  0.3693097208267517  0.5074193868843726  0.47024590096094704  1.0000
  H   H4        1.0  0.18002758313593  0.7347352971018422  0.6239634320027543  1.0000
  H   H5        1.0  0.2786127320234223  0.8746418837838996  0.7372237543293634  1.0000
  H   H6        1.0  0.42154167915519763  0.8350826387870097  0.7184624997899451  1.0000
  C   C13       1.0  0.9587525666282067  0.0784385898800304  0.4176109764603726  1.0000
  C   C14       1.0  0.9723530940394287  0.08957170498710523  0.2676875090485311  1.0000
  C   C15       1.0  0.9802935933836238  0.9779051585626078  0.19246069320120676  1.0000
  C   C16       1.0  0.9721727047243711  0.8544074079216891  0.26772164252047603  1.0000
  C   C17       1.0  0.9585905731247084  0.8411199669131161  0.4176046949106409  1.0000
  C   C18       1.0  0.9522522358318691  0.9537540701096532  0.49184890684469007  1.0000
  N   N3        1.0  0.9929772368493769  0.987686130917557  0.03858975432654966  1.0000
  C   C19       1.0  0.039862121586595085  0.0886776512957717  0.9615085018244895  1.0000
  O   O1        1.0  0.08480597366331044  0.1621517136718189  0.028641003503514284  1.0000
  C   C20       1.0  0.04006783582221596  0.10109068704970813  0.7997931614175365  1.0000
  H   H7        1.0  0.9751922656429104  0.18504354030784548  0.20898815850669816  1.0000
  H   H8        1.0  0.9771846867951277  0.7687246670702167  0.20868071864339588  1.0000
  H   H9        1.0  0.941784276019213  0.9443585919667852  0.6074868995978031  1.0000
  H   H10       1.0  0.9710801019892501  0.9122691341394562  0.9803566819405588  1.0000
  H   H11       1.0  0.9790955448463572  0.08294033607475491  0.7582288784075226  1.0000
  H   H12       1.0  0.05987760647370565  0.2006342991265249  0.7579051537113828  1.0000
  H   H13       1.0  0.08125930422330276  0.0287528763967284  0.7604831517097168  1.0000
  C   C21       1.0  0.9591244062104659  0.46377982467947404  0.993675828083171  1.0000
  C   C22       1.0  0.8880626723257478  0.4916715989912832  0.06352133589155987  1.0000
  C   C23       1.0  0.816780395787976  0.5072788151416552  0.9863484950681984  1.0000
  C   C24       1.0  0.8145376201634333  0.4952932060891094  0.8370305418087881  1.0000
  C   C25       1.0  0.885556278830959  0.469625525148399  0.7657468934946311  1.0000
  C   C26       1.0  0.958218725946743  0.4557787052023617  0.8415398809569822  1.0000
  N   N4        1.0  0.7406284893905379  0.5104030069691672  0.7581222269541361  1.0000
  O   O2        1.0  0.6713408379501153  0.5366063648572947  0.8281741387230945  1.0000
  O   O3        1.0  0.7380918380779131  0.49963856261386047  0.625100297702053  1.0000
  H   H14       1.0  0.1336020985619475  0.32259150333102693  0.11191806491755375  1.0000
  H   H15       1.0  0.7631226825038006  0.5274916200844015  0.0441718194240839  1.0000
  H   H16       1.0  0.07718034423124376  0.36455618281546043  0.5713316756935982  1.0000
  Zn  Zn1       1.0  0.8713165406544878  0.45763102032260894  0.4166990221711483  1.0000
  Zn  Zn2       1.0  0.046018980233815794  0.46192670785882517  0.4185159213527187  1.0000
  C   C27       1.0  0.9583892551040982  0.45211768463211294  0.6812754256336662  1.0000
  C   C28       1.0  0.9589481730300697  0.4674417276406745  0.15393967940970704  1.0000
  C   C29       1.0  0.9586232457334627  0.6970111201885247  0.4118530995283765  1.0000
  C   C30       1.0  0.9587141230361214  0.22254672968466085  0.42336208187391833  1.0000
  O   O4        1.0  0.025187694118986803  0.4702952213631195  0.20841519576035622  1.0000
  O   O5        1.0  0.024744843968565133  0.4525235426130714  0.6281784781601558  1.0000
  O   O6        1.0  0.024932899019856958  0.6502780527838332  0.41061803431640914  1.0000
  O   O7        1.0  0.024999579567233973  0.27254072003764573  0.42597553074176675  1.0000
  O   O8        1.0  0.8923358817037087  0.6470170066793666  0.40923941215448834  1.0000
  O   O9        1.0  0.8921478263996401  0.44926405744378434  0.6267997790117013  1.0000
  O   O10       1.0  0.8925906784666701  0.4670357073210125  0.20703476095028392  1.0000
  O   O11       1.0  0.8924025637980173  0.2692811956858288  0.4245952041664193  1.0000
