data_image0
_chemical_formula_structural       NC9NC3OH6C6OCH7C8H9Zn2C4O8
_chemical_formula_sum              "N2 C31 O10 H22 Zn2"
_cell_length_a       15.78231758774541
_cell_length_b       9.273888216677433
_cell_length_c       9.27565708386181
_cell_angle_alpha    86.0490458067009
_cell_angle_beta     89.58874472212383
_cell_angle_gamma    89.05820199757645

_space_group_name_H-M_alt    "P 1"
_space_group_IT_number       1

loop_
  _space_group_symop_operation_xyz
  'x, y, z'

loop_
  _atom_site_type_symbol
  _atom_site_label
  _atom_site_symmetry_multiplicity
  _atom_site_fract_x
  _atom_site_fract_y
  _atom_site_fract_z
  _atom_site_occupancy
  N   N1        1.0  0.7967520587138319  0.5611486028959509  0.41805701511508764  1.0000
  C   C1        1.0  0.7486208997490384  0.4701585801616022  0.44446892682716155  1.0000
  C   C2        1.0  0.6888641579817704  0.35721784684350394  0.4772529181616256  1.0000
  C   C3        1.0  0.7091522463721837  0.2153456280081599  0.5183467495519469  1.0000
  C   C4        1.0  0.6327243844350183  0.14658922672132627  0.5383451806734106  1.0000
  C   C5        1.0  0.5704805543943153  0.25159114371143154  0.5079768633862554  1.0000
  C   C6        1.0  0.4774746851980043  0.23217842296847582  0.5136933616471907  1.0000
  C   C7        1.0  0.4232054531401777  0.3512103058097855  0.4790838822091169  1.0000
  C   C8        1.0  0.3350687166240359  0.3352923814804334  0.4837792221104071  1.0000
  C   C9        1.0  0.2800877842656304  0.45778751117175553  0.44815360837625184  1.0000
  N   N2        1.0  0.23589608632563872  0.5562577840018128  0.4195137820920873  1.0000
  C   C10       1.0  0.30052069347244875  0.20016542376174654  0.5231378082040878  1.0000
  C   C11       1.0  0.353857884633868  0.08137966110477392  0.5576805698934895  1.0000
  C   C12       1.0  0.4418108822625835  0.09686028718894059  0.553112806707287  1.0000
  O   O1        1.0  0.6063906063058644  0.37603150250725625  0.4718782803502126  1.0000
  H   H1        1.0  0.7718238838623779  0.16750093314642323  0.5321486205574082  1.0000
  H   H2        1.0  0.6244905975714552  0.03353504855138525  0.5711086760823896  1.0000
  H   H3        1.0  0.4493482055517538  0.4563630116785131  0.44845068240747205  1.0000
  H   H4        1.0  0.2324634886801897  0.18668375681929228  0.5271121610354753  1.0000
  H   H5        1.0  0.32698165074389074  0.9769458361465525  0.5881048154344541  1.0000
  H   H6        1.0  0.48131153859699766  0.002773645421868983  0.580482263973749  1.0000
  C   C13       1.0  0.018823672827983584  0.1352056860672826  0.4173208671740844  1.0000
  C   C14       1.0  0.9996969227203736  0.21802027916295  0.2884981559675297  1.0000
  C   C15       1.0  0.9733324522575736  0.15295710140238986  0.16530700962901854  1.0000
  C   C16       1.0  0.9659403983212589  0.0020852083367894924  0.17047512456925018  1.0000
  C   C17       1.0  0.985968077821517  0.9180512379167646  0.29652789686441827  1.0000
  C   C18       1.0  0.013832539762811612  0.9821895973446749  0.42026236988857524  1.0000
  O   O2        1.0  0.9546975297807812  0.24195508185238612  0.04072404344171331  1.0000
  C   C19       1.0  0.9270971718222771  0.19065661257463118  0.9079706916779158  1.0000
  H   H7        1.0  0.02390548316263086  0.21365537257735523  0.7720855172389679  1.0000
  H   H8        1.0  0.9455036563113387  0.948397095772082  0.07717504777614237  1.0000
  H   H9        1.0  0.981567375493762  0.8016293656051732  0.2960332849679471  1.0000
  H   H10       1.0  0.020810971740513367  0.6844030861906479  0.658222996683584  1.0000
  H   H11       1.0  0.8662059842556632  0.1332960629367073  0.9243824883157309  1.0000
  H   H12       1.0  0.9759668061451444  0.11728207013817939  0.8649073917518549  1.0000
  H   H13       1.0  0.9172004518367982  0.28404297403225254  0.8282387818599565  1.0000
  C   C20       1.0  0.018499367195034866  0.5564996002157341  0.9954713468588382  1.0000
  C   C21       1.0  0.06174587549870436  0.66594488485824  0.06093912487269648  1.0000
  C   C22       1.0  0.09747382822463635  0.7816459021253666  0.9777245525068918  1.0000
  C   C23       1.0  0.09121869169617036  0.7869037455209863  0.827083036824806  1.0000
  C   C24       1.0  0.04979856881566476  0.6780837639371979  0.7601709685505615  1.0000
  C   C25       1.0  0.01415686018291629  0.5608956684939119  0.8421119133454897  1.0000
  C   C26       1.0  0.14460429480939263  0.8967606255533315  0.04948468515621916  1.0000
  C   C27       1.0  0.23792221775592048  0.8545721729704641  0.06749513597041368  1.0000
  H   H14       1.0  0.9818192743247686  0.3268571465625778  0.2923732306279121  1.0000
  H   H15       1.0  0.06614286555749961  0.6632223973810425  0.1776693989247633  1.0000
  H   H16       1.0  0.11926636012577352  0.8747288691687674  0.7610976814607175  1.0000
  H   H17       1.0  0.9150872182100862  0.395801583575944  0.5733684081264023  1.0000
  H   H18       1.0  0.13934672589191632  0.0015076981185493494  0.9839925784406466  1.0000
  H   H19       1.0  0.11632441086240503  0.913407540218861  0.1573244109453768  1.0000
  H   H20       1.0  0.244559075625284  0.7519127072301123  0.13590703970873053  1.0000
  H   H21       1.0  0.2678202561122942  0.8409673195382631  0.9603731475473735  1.0000
  H   H22       1.0  0.2714886017903755  0.9407629986697004  0.12047543377797898  1.0000
  Zn  Zn1       1.0  0.9234795154419425  0.5597334092162511  0.4184857109815118  1.0000
  Zn  Zn2       1.0  0.10916861002337436  0.5576612685098246  0.419096829484044  1.0000
  C   C28       1.0  0.015009653901980596  0.5543195531414975  0.68205873595618  1.0000
  C   C29       1.0  0.01764048783402194  0.5630769223240878  0.15552395899020843  1.0000
  C   C30       1.0  0.014801087612921204  0.8220618308065972  0.41396189403786154  1.0000
  C   C31       1.0  0.017849000576433578  0.29533291310099297  0.42362087153762973  1.0000
  O   O3        1.0  0.08782032081660901  0.5644916734917432  0.20947097215678778  1.0000
  O   O4        1.0  0.08576355569302074  0.5513310050197918  0.6285751288444967  1.0000
  O   O5        1.0  0.08559417814585309  0.7675362986812024  0.41208503424714477  1.0000
  O   O6        1.0  0.08798963549425798  0.3482863902926713  0.42596095849535565  1.0000
  O   O7        1.0  0.9446584266045136  0.769108288142055  0.4116215817540784  1.0000
  O   O8        1.0  0.9448277943317837  0.5529047267472895  0.6281116055062055  1.0000
  O   O9        1.0  0.9468845686974114  0.5660653359641431  0.20900571548622038  1.0000
  O   O10       1.0  0.9470538828780343  0.3498600430113825  0.4254958098674504  1.0000
