data_image0
_chemical_formula_structural       NC16NOH10C6H6C12H10Zn2C4O8
_chemical_formula_sum              "N2 C38 O9 H26 Zn2"
_cell_length_a       21.30360265646646
_cell_length_b       10.30288869885445
_cell_length_c       13.024585202197208
_cell_angle_alpha    85.80961696087208
_cell_angle_beta     93.57028129254516
_cell_angle_gamma    90.64885441905108

_space_group_name_H-M_alt    "P 1"
_space_group_IT_number       1

loop_
  _space_group_symop_operation_xyz
  'x, y, z'

loop_
  _atom_site_type_symbol
  _atom_site_label
  _atom_site_symmetry_multiplicity
  _atom_site_fract_x
  _atom_site_fract_y
  _atom_site_fract_z
  _atom_site_occupancy
  N   N1        1.0  0.5427121306467554  0.42802016785475383  0.8576192448372139  1.0000
  C   C1        1.0  0.4884541716583524  0.42104761504902216  0.8474395410794766  1.0000
  C   C2        1.0  0.42096191194192445  0.41237483173124545  0.8347768842712958  1.0000
  C   C3        1.0  0.38780721071963514  0.4971880147012262  0.7626364395142908  1.0000
  C   C4        1.0  0.3222473683278051  0.48892368221677474  0.7502046409797811  1.0000
  C   C5        1.0  0.28881113512875584  0.39554503708552424  0.8101296836192301  1.0000
  C   C6        1.0  0.3227819877799781  0.3103699115625531  0.882136130726346  1.0000
  C   C7        1.0  0.3883286536754313  0.3189250911145182  0.8944093942912515  1.0000
  C   C8        1.0  0.2191069243564301  0.3849917914515247  0.7979616851470531  1.0000
  C   C9        1.0  0.1800366527378916  0.49017867906665163  0.7386950919856434  1.0000
  C   C10       1.0  0.1116686535879508  0.48065912908768427  0.7622796860545101  1.0000
  C   C11       1.0  0.06880859281710891  0.4118022993346686  0.6999670849470232  1.0000
  C   C12       1.0  0.005720173915407804  0.4005006913450449  0.7234000672922801  1.0000
  C   C13       1.0  0.9850015860480954  0.4571214187767448  0.8096758632068681  1.0000
  C   C14       1.0  0.027665707632755897  0.5248038423022405  0.8726352890067689  1.0000
  C   C15       1.0  0.0907619442762327  0.5361672547023508  0.8492765933065971  1.0000
  C   C16       1.0  0.9200678440076622  0.4453205527205384  0.833823175667502  1.0000
  N   N2        1.0  0.8678646435326832  0.43583254769251745  0.8532367443730331  1.0000
  O   O1        1.0  0.1922458323755321  0.28406421367788126  0.8354737079280297  1.0000
  H   H1        1.0  0.4126431794496968  0.5695833483389813  0.7157421506238152  1.0000
  H   H2        1.0  0.2981631439355802  0.5550061983035067  0.692893133583742  1.0000
  H   H3        1.0  0.2986699790721417  0.23742116833867377  0.9295285213229167  1.0000
  H   H4        1.0  0.413529274626067  0.2526534657101214  0.9504592798203021  1.0000
  H   H5        1.0  0.19839450166983183  0.5872613370556246  0.7584328944191914  1.0000
  H   H6        1.0  0.1848814809100143  0.48318559453099674  0.6548092043774909  1.0000
  H   H7        1.0  0.08426030086742783  0.36675512262052135  0.6334166810021924  1.0000
  H   H8        1.0  0.9731754844942547  0.3473986547182323  0.6744477944143488  1.0000
  H   H9        1.0  0.012207056728237301  0.5684645047155658  0.9398431622442265  1.0000
  H   H10       1.0  0.12335681970434281  0.5880174462935842  0.8989950049604816  1.0000
  C   C17       1.0  0.7052282386215888  0.05067755290142362  0.8553994457312928  1.0000
  C   C18       1.0  0.7692271271237797  0.048043897118397204  0.8886882738298384  1.0000
  C   C19       1.0  0.8009811763609962  0.9298579331469127  0.9052049048238868  1.0000
  C   C20       1.0  0.7693929229128366  0.8130327855318444  0.8887744080953527  1.0000
  C   C21       1.0  0.7053549365564246  0.8131653703518243  0.8554653301260352  1.0000
  C   C22       1.0  0.6736080430035812  0.9325708393716523  0.8389523239326945  1.0000
  H   H11       1.0  0.6809803699647409  0.37897052364207906  0.842785790900496  1.0000
  H   H12       1.0  0.7948277968192407  0.13724700152649283  0.9020043919700742  1.0000
  H   H13       1.0  0.8503017462543184  0.9287997709046913  0.9308586114359065  1.0000
  H   H14       1.0  0.7951067419676983  0.7226980282798773  0.9021491861164266  1.0000
  H   H15       1.0  0.6242605922129499  0.9336724421381895  0.8132845436633401  1.0000
  H   H16       1.0  0.5847370833166061  0.606251257028741  0.792725604370797  1.0000
  C   C23       1.0  0.692431309134734  0.4300543018684515  0.5533867049803676  1.0000
  C   C24       1.0  0.6785783452955287  0.5334656743366434  0.479152826938924  1.0000
  C   C25       1.0  0.700014390609864  0.531993031966947  0.379983628990864  1.0000
  C   C26       1.0  0.73525198300527  0.4267598207359583  0.35305203828357057  1.0000
  C   C27       1.0  0.7497010526833622  0.32410147009484924  0.42720476132693663  1.0000
  C   C28       1.0  0.7282965751645935  0.3254659185212825  0.5264167878214228  1.0000
  C   C29       1.0  0.7588465252798781  0.4261285105205467  0.2485338454175642  1.0000
  C   C30       1.0  0.8242805771414886  0.4234679708129242  0.2399693154267559  1.0000
  C   C31       1.0  0.849502939469558  0.4309584793504171  0.14340564143300272  1.0000
  C   C32       1.0  0.8098213437577996  0.44147891672282774  0.054092914354539  1.0000
  C   C33       1.0  0.7447094580489676  0.44293333179904654  0.06091036946840121  1.0000
  C   C34       1.0  0.7181518447973678  0.43378862174714033  0.15747804565217907  1.0000
  H   H17       1.0  0.6686136196203176  0.3281092268169497  0.8036411632425042  1.0000
  H   H18       1.0  0.6512904994882013  0.6156859830643453  0.4977107550932056  1.0000
  H   H19       1.0  0.6892268566501664  0.6130096179665497  0.32413882236580455  1.0000
  H   H20       1.0  0.7772520557156862  0.24255830933880917  0.4079619843776364  1.0000
  H   H21       1.0  0.7398951430186458  0.2446066777863993  0.5819325288274246  1.0000
  H   H22       1.0  0.8559760649857531  0.4178944661520389  0.30848840063461025  1.0000
  H   H23       1.0  0.8999709242358327  0.4295956640144868  0.13784399092396593  1.0000
  H   H24       1.0  0.8295334797628205  0.44767759778157123  0.9792607888045679  1.0000
  H   H25       1.0  0.7150015132357946  0.44883357557461273  0.9901785411863491  1.0000
  H   H26       1.0  0.5637001214780231  0.475324903366502  0.07502928398971931  1.0000
  Zn  Zn1       1.0  0.6365443836815857  0.43027121283901826  0.856360482540698  1.0000
  Zn  Zn2       1.0  0.7740327675058218  0.43357093079370096  0.8545039075842261  1.0000
  C   C35       1.0  0.7132878728690554  0.4279106644792952  0.04329144434300636  1.0000
  C   C36       1.0  0.6972907842577726  0.4359331539142031  0.6675730266036667  1.0000
  C   C37       1.0  0.7051532475582085  0.6690135208637601  0.8513541687434176  1.0000
  C   C38       1.0  0.705425364729073  0.19482873693122454  0.8595103575392511  1.0000
  O   O2        1.0  0.7510977926943092  0.4391527121735542  0.7051904382355634  1.0000
  O   O3        1.0  0.7638313537211178  0.427194534552773  0.004264639105196143  1.0000
  O   O4        1.0  0.7572618830837884  0.6218881299757795  0.8492739406850645  1.0000
  O   O5        1.0  0.7576672131341032  0.24445912443513623  0.8601810601688992  1.0000
  O   O6        1.0  0.6529098911350365  0.619383018072931  0.8506833305841726  1.0000
  O   O7        1.0  0.6594793596936442  0.4246909821237863  0.0056739742964561045  1.0000
  O   O8        1.0  0.6467457460484843  0.4366491068593363  0.706598536786843  1.0000
  O   O9        1.0  0.6533151697675459  0.24195551031167864  0.8615892358351227  1.0000
