data_image0
_chemical_formula_structural       NC5OC5NC4H8C7NH5C7NH4Zn2C4O8
_chemical_formula_sum              "N4 C32 O9 H17 Zn2"
_cell_length_a       19.189071930511275
_cell_length_b       9.275154477615127
_cell_length_c       9.275157849593905
_cell_angle_alpha    86.33461140486662
_cell_angle_beta     89.71899716240229
_cell_angle_gamma    89.42495848434854

_space_group_name_H-M_alt    "P 1"
_space_group_IT_number       1

loop_
  _space_group_symop_operation_xyz
  'x, y, z'

loop_
  _atom_site_type_symbol
  _atom_site_label
  _atom_site_symmetry_multiplicity
  _atom_site_fract_x
  _atom_site_fract_y
  _atom_site_fract_z
  _atom_site_occupancy
  N   N1        1.0  0.6522137133704772  0.5624655015795457  0.4160626745315618  1.0000
  C   C1        1.0  0.5975570369995903  0.6134715933593978  0.3959671816897343  1.0000
  C   C2        1.0  0.5295711879853986  0.6769146687289931  0.3709714051010884  1.0000
  C   C3        1.0  0.5196115780314213  0.7834383876189133  0.2588523511335527  1.0000
  C   C4        1.0  0.4535699744917199  0.8451476578490191  0.23471186644804787  1.0000
  C   C5        1.0  0.39683311257518145  0.8002037763059542  0.3211859782737796  1.0000
  O   O1        1.0  0.331606841630688  0.8659207291094474  0.29454805483843777  1.0000
  C   C6        1.0  0.2668944803756802  0.7999872998347004  0.32055902182970875  1.0000
  C   C7        1.0  0.20964475022167092  0.8864522168933686  0.3544810651341803  1.0000
  C   C8        1.0  0.1440836316843676  0.825068976461166  0.3795668197520847  1.0000
  C   C9        1.0  0.135119978266407  0.6764070951435921  0.3695000100955417  1.0000
  C   C10       1.0  0.0676284024233341  0.613191933018683  0.3951563803091353  1.0000
  N   N2        1.0  0.013369156805111098  0.5623691436997242  0.41578344498114217  1.0000
  C   C11       1.0  0.1919028559263298  0.5895794299282764  0.3334488124146586  1.0000
  C   C12       1.0  0.2574547968606596  0.6510069249531563  0.3084116553560605  1.0000
  C   C13       1.0  0.4072660847630319  0.6946994833323312  0.435104985958372  1.0000
  C   C14       1.0  0.4732986449688881  0.6329863121245196  0.45931356604747026  1.0000
  H   H1        1.0  0.562840621959914  0.8188730170559515  0.19031262053338183  1.0000
  H   H2        1.0  0.4463305617909595  0.9276185131914974  0.14796196665927042  1.0000
  H   H3        1.0  0.21611317889491083  0.00151436116403714  0.36223503550648517  1.0000
  H   H4        1.0  0.1004492551390905  0.8934587293593732  0.406586022981322  1.0000
  H   H5        1.0  0.18543099458331794  0.47467049305043796  0.3239478443639907  1.0000
  H   H6        1.0  0.3003874136180685  0.5828123980183111  0.2776050322075818  1.0000
  H   H7        1.0  0.3647283500949912  0.6617084225647715  0.5063767477915275  1.0000
  H   H8        1.0  0.4805363348809844  0.5516904610395235  0.547279338478923  1.0000
  C   C15       1.0  0.8348151025335995  0.13901144718403335  0.41425378268547286  1.0000
  C   C16       1.0  0.8159701326932128  0.22097189240944234  0.28720017917313356  1.0000
  C   C17       1.0  0.7914417971199369  0.15378116297533115  0.16688196064886052  1.0000
  C   C18       1.0  0.7853533025944006  0.003713433325649218  0.17220042760888393  1.0000
  C   C19       1.0  0.8048506206539634  0.9205172466227144  0.296357108886421  1.0000
  C   C20       1.0  0.8307744861199493  0.9858122827991278  0.41760477783612115  1.0000
  C   C21       1.0  0.7716731100148613  0.23930891849920255  0.038297568496135526  1.0000
  N   N3        1.0  0.7557845751647815  0.30805764365292965  0.9349486534719129  1.0000
  H   H9        1.0  0.847538135651832  0.2190857770025052  0.7679997920604262  1.0000
  H   H10       1.0  0.8188256698939314  0.3378893519843422  0.28292182850287295  1.0000
  H   H11       1.0  0.7661304107740121  0.9507013382631557  0.07972860719549656  1.0000
  H   H12       1.0  0.8011915382484246  0.8040494050084639  0.2962331069145341  1.0000
  H   H13       1.0  0.8423011056591782  0.6893215261137507  0.6546223453103202  1.0000
  C   C22       1.0  0.8337389342524603  0.5583360645081812  0.9927146455481606  1.0000
  C   C23       1.0  0.8935799277370773  0.6053237085865597  0.06255023766270429  1.0000
  C   C24       1.0  0.9497920257358348  0.6636499626527477  0.9828592617127643  1.0000
  C   C25       1.0  0.9468172575352413  0.6759159034052338  0.8322511050184063  1.0000
  C   C26       1.0  0.888414582205129  0.6277603235537315  0.7610682430158343  1.0000
  C   C27       1.0  0.8318506702197256  0.5664876041899137  0.8391439012784678  1.0000
  C   C28       1.0  0.010306459686890703  0.7126453704684981  0.05600986367720573  1.0000
  N   N4        1.0  0.05894457287951683  0.7520244669207787  0.11481059191667219  1.0000
  H   H14       1.0  0.664412538728011  0.5097669626718795  0.10049098086109674  1.0000
  H   H15       1.0  0.9899942856704224  0.7215117620409219  0.7695752330553438  1.0000
  H   H16       1.0  0.8882242454557508  0.6353407427872757  0.6440339194527178  1.0000
  H   H17       1.0  0.7186033418598062  0.5277327249571205  0.5616716250231941  1.0000
  Zn  Zn1       1.0  0.7564353815394413  0.5624339284426825  0.4159903960206994  1.0000
  Zn  Zn2       1.0  0.9091475357985496  0.5623890793981108  0.4158674604660444  1.0000
  C   C29       1.0  0.8322334291150729  0.5592028631019939  0.6791278942221455  1.0000
  C   C30       1.0  0.8333511468385936  0.5656219648505101  0.15273010957392597  1.0000
  C   C31       1.0  0.8315474706778234  0.8256935724971206  0.4112283182948162  1.0000
  C   C32       1.0  0.8340370612602916  0.2991295239210925  0.4206297555240434  1.0000
  O   O2        1.0  0.8911744985300486  0.5680438693269041  0.20638608276624004  1.0000
  O   O3        1.0  0.8903150751032479  0.5567458275290478  0.6253781966178068  1.0000
  O   O4        1.0  0.889760370406499  0.7719404602619242  0.4090474001840835  1.0000
  O   O5        1.0  0.8917291513083354  0.35284924588291533  0.42271677122362633  1.0000
  O   O6        1.0  0.7738537139165014  0.77197376197468  0.40914108529749527  1.0000
  O   O7        1.0  0.7744084105156479  0.556780860792895  0.6254718117428069  1.0000
  O   O8        1.0  0.7752678380940499  0.5680788356592632  0.20647796496702497  1.0000
  O   O9        1.0  0.7758224906776447  0.35288420294318756  0.4228087614351259  1.0000
