data_image0
_chemical_formula_structural       NC9NC3OH6C7F3H5C7NC2NH7Zn2C4O8
_chemical_formula_sum              "N4 C32 O9 H18 F3 Zn2"
_cell_length_a       15.78231758774541
_cell_length_b       9.272718291674593
_cell_length_c       9.27399911348925
_cell_angle_alpha    85.49165257692455
_cell_angle_beta     89.74395178918073
_cell_angle_gamma    89.20559360488726

_space_group_name_H-M_alt    "P 1"
_space_group_IT_number       1

loop_
  _space_group_symop_operation_xyz
  'x, y, z'

loop_
  _atom_site_type_symbol
  _atom_site_label
  _atom_site_symmetry_multiplicity
  _atom_site_fract_x
  _atom_site_fract_y
  _atom_site_fract_z
  _atom_site_occupancy
  N   N1        1.0  0.7964064975175933  0.5827149772932909  0.4225521799201821  1.0000
  C   C1        1.0  0.7481834747050176  0.4913804211673715  0.4486259995026498  1.0000
  C   C2        1.0  0.6883127082382551  0.3780120327697318  0.4809903367815586  1.0000
  C   C3        1.0  0.7084574124807095  0.23560383282701064  0.5215569112453722  1.0000
  C   C4        1.0  0.6319602024996962  0.16658652632826176  0.5412999104756115  1.0000
  C   C5        1.0  0.5698225715046872  0.2719844951314594  0.5113218776207877  1.0000
  C   C6        1.0  0.4767972419360595  0.2524971376327618  0.5169663382145127  1.0000
  C   C7        1.0  0.4226480865128109  0.37198053566859945  0.4827990793651151  1.0000
  C   C8        1.0  0.3344954065517228  0.35600130074312597  0.4874353594670193  1.0000
  C   C9        1.0  0.2796380288649252  0.47896120965942757  0.45226482217900665  1.0000
  N   N2        1.0  0.23554565049592982  0.5778051248446198  0.42399081696158514  1.0000
  C   C10       1.0  0.2998111884607081  0.22036081393386467  0.5262920096454748  1.0000
  C   C11       1.0  0.35302855951408524  0.10112440249569166  0.5603934707205547  1.0000
  C   C12       1.0  0.440997060181187  0.11666467445759388  0.5558831432036568  1.0000
  O   O1        1.0  0.6058582980745394  0.3968957272823954  0.4756857049677292  1.0000
  H   H1        1.0  0.771080599159824  0.1875791687871995  0.5351809058280093  1.0000
  H   H2        1.0  0.6236121854472952  0.05310500448261957  0.5736432685065751  1.0000
  H   H3        1.0  0.4488968137731779  0.4775329309194229  0.4525564685338612  1.0000
  H   H4        1.0  0.231740476369617  0.20682725278174122  0.5302163391212154  1.0000
  H   H5        1.0  0.32604707607853095  0.9962936141177638  0.5904297981137718  1.0000
  H   H6        1.0  0.4804028262134304  0.022220960104526014  0.5829030700902076  1.0000
  C   C13       1.0  0.017836334345158637  0.15688419384964902  0.42008949488200453  1.0000
  C   C14       1.0  0.9665258183024339  0.2396343878582674  0.32018302356708395  1.0000
  C   C15       1.0  0.9091808194289603  0.1735091057615761  0.23164426384454614  1.0000
  C   C16       1.0  0.9054020818205883  0.022189598917926823  0.2400694695203853  1.0000
  C   C17       1.0  0.9567866042327445  0.9385065618101509  0.33685320325613244  1.0000
  C   C18       1.0  0.01412388955136889  0.003624628874507648  0.42646595306185264  1.0000
  C   C19       1.0  0.8563603919492941  0.2639530365354532  0.1225512715280843  1.0000
  F   F1        1.0  0.8344082320613471  0.3951633997336337  0.17493058377625315  1.0000
  F   F2        1.0  0.7824972523684108  0.19363960616659703  0.0921566600369077  1.0000
  F   F3        1.0  0.9025023793969573  0.28931428695794353  0.9962824696702776  1.0000
  H   H7        1.0  0.11738327034778501  0.23176659304160463  0.7318812213710912  1.0000
  H   H8        1.0  0.9699310081858366  0.3566233267562764  0.31347701743604683  1.0000
  H   H9        1.0  0.8632854053881579  0.9681690021477403  0.17053020711589692  1.0000
  H   H10       1.0  0.9533216001169789  0.8217593944008958  0.3387836256744039  1.0000
  H   H11       1.0  0.19543350253013814  0.8841792101064959  0.6007640819419862  1.0000
  C   C20       1.0  0.017427382645054598  0.5839279207465056  0.9994588945119344  1.0000
  C   C21       1.0  0.08424604646047057  0.5141481685385274  0.07764144962740605  1.0000
  C   C22       1.0  0.14550070031277162  0.43416709454204305  0.008591642153150452  1.0000
  C   C23       1.0  0.14158568446642494  0.42120950224110376  0.8591843231440492  1.0000
  C   C24       1.0  0.07603162073125302  0.4934097279539633  0.7794656366682056  1.0000
  C   C25       1.0  0.014532855473683437  0.5765809130192097  0.8470964639313583  1.0000
  C   C26       1.0  0.20699333779458673  0.334256137453105  0.7880524784833765  1.0000
  N   N3        1.0  0.27817183975722926  0.28308819218076464  0.8559444061910155  1.0000
  C   C27       1.0  0.3195078145028212  0.21049113454789103  0.7562125471885341  1.0000
  C   C28       1.0  0.27319119208125464  0.2181938480929235  0.6305729481122513  1.0000
  N   N4        1.0  0.20242794868796776  0.29596539255286425  0.6507550275126673  1.0000
  H   H12       1.0  0.926431002465339  0.7669132775189069  0.2671109686201554  1.0000
  H   H13       1.0  0.08806565013225165  0.5183956131411007  0.19383748495779285  1.0000
  H   H14       1.0  0.1954256404249043  0.3804994585564585  0.07308219687220574  1.0000
  H   H15       1.0  0.07395270865166712  0.4895321687643957  0.6633243974318538  1.0000
  H   H16       1.0  0.8819674966548507  0.6594301698950855  0.561513973484101  1.0000
  H   H17       1.0  0.3796900825019658  0.15494824221607925  0.7743641387817677  1.0000
  H   H18       1.0  0.1543950779135167  0.31835431007626025  0.5750571472011456  1.0000
  Zn  Zn1       1.0  0.9231325559417219  0.5812941766789785  0.42297563805211025  1.0000
  Zn  Zn2       1.0  0.10881957488198689  0.5792140562220727  0.42357906823172686  1.0000
  C   C29       1.0  0.015103273871949655  0.5722261261408677  0.6868315897147806  1.0000
  C   C30       1.0  0.016850876188844174  0.5882839019270198  0.15972327851201729  1.0000
  C   C31       1.0  0.014840910507690985  0.8436225665174477  0.41950939864799003  1.0000
  C   C32       1.0  0.01711318352281777  0.3168857294272347  0.4270455332742864  1.0000
  O   O2        1.0  0.08712467890438486  0.5889501243219317  0.21373842105838428  1.0000
  O   O3        1.0  0.08576162821424321  0.5699800564143929  0.6332740130632698  1.0000
  O   O4        1.0  0.08554881142266813  0.789136111928908  0.41740946062991413  1.0000
  O   O5        1.0  0.08733743265786975  0.3697940807686917  0.42960286515012686  1.0000
  O   O6        1.0  0.9446146347999921  0.7907141528438377  0.41695184092021  1.0000
  O   O7        1.0  0.9448274442560052  0.5715598301640055  0.632816329444587  1.0000
  O   O8        1.0  0.9461905011481634  0.5905298628701827  0.2132790018625037  1.0000
  O   O9        1.0  0.9464032545738915  0.3713738080671455  0.4291435540823594  1.0000
