data_image0
_chemical_formula_structural       NC9NC3OH6C8H6C7OCH10Zn2C4O8
_chemical_formula_sum              "N2 C32 O10 H22 Zn2"
_cell_length_a       15.78231758774541
_cell_length_b       9.27514070457351
_cell_length_c       10.300835455316063
_cell_angle_alpha    85.70757600904483
_cell_angle_beta     90.10164199731037
_cell_angle_gamma    90.22379856908987

_space_group_name_H-M_alt    "P 1"
_space_group_IT_number       1

loop_
  _space_group_symop_operation_xyz
  'x, y, z'

loop_
  _atom_site_type_symbol
  _atom_site_label
  _atom_site_symmetry_multiplicity
  _atom_site_fract_x
  _atom_site_fract_y
  _atom_site_fract_z
  _atom_site_occupancy
  N   N1        1.0  0.807106462070558  0.5688024067385951  0.5735280528327329  1.0000
  C   C1        1.0  0.758026411748317  0.4776965345609543  0.5974060876835057  1.0000
  C   C2        1.0  0.6970918672234326  0.3646120019714324  0.6270448833301836  1.0000
  C   C3        1.0  0.7158999773238148  0.22255959062082908  0.6641965881343841  1.0000
  C   C4        1.0  0.6387552995510496  0.15371544552107563  0.6822762994694678  1.0000
  C   C5        1.0  0.5776070662293985  0.25885049554448614  0.6548210604974265  1.0000
  C   C6        1.0  0.48439917902933344  0.2394126491341541  0.6599888681368988  1.0000
  C   C7        1.0  0.4313709700924106  0.35859637466224675  0.62869990440214  1.0000
  C   C8        1.0  0.343068625878373  0.3426578079821414  0.6329445424822011  1.0000
  C   C9        1.0  0.2893647762285971  0.46530924425853626  0.6007369648247964  1.0000
  N   N2        1.0  0.24619968042848553  0.5639051745920421  0.5748449403671456  1.0000
  C   C10       1.0  0.3071121367998912  0.20735812790584876  0.6685267451408052  1.0000
  C   C11       1.0  0.3592108963117459  0.08842081221090803  0.6997553763172661  1.0000
  C   C12       1.0  0.4473249446297272  0.10392152065548821  0.695626073534473  1.0000
  O   O1        1.0  0.6148149680144943  0.38344917742015183  0.6221855878872626  1.0000
  H   H1        1.0  0.7780722132140728  0.17465441175898033  0.6766746331237594  1.0000
  H   H2        1.0  0.629342246384464  0.040517591821130905  0.7118967408340191  1.0000
  H   H3        1.0  0.45860973089649726  0.463883515464366  0.601005920548427  1.0000
  H   H4        1.0  0.238914658378102  0.19385898979395064  0.6721196107280993  1.0000
  H   H5        1.0  0.3312461494090951  0.9838534690256127  0.7272604532618758  1.0000
  H   H6        1.0  0.4858447245274014  0.009714792233578955  0.7203695974136453  1.0000
  C   C13       1.0  0.02408315458395416  0.14294150092540314  0.5732706929223832  1.0000
  C   C14       1.0  0.036157596159110045  0.2262199942149803  0.45485866523386376  1.0000
  C   C15       1.0  0.05562175583880943  0.1606607138282652  0.3411227090878015  1.0000
  C   C16       1.0  0.06347721000784734  0.010643784415431677  0.3436147833505907  1.0000
  C   C17       1.0  0.0503172229318094  0.9257960432598322  0.4598954487233591  1.0000
  C   C18       1.0  0.02923098586345117  0.9897549191607056  0.5751135450092277  1.0000
  C   C19       1.0  0.0840965694246021  0.9433198436761786  0.2262527913453687  1.0000
  C   C20       1.0  0.10136083698762394  0.886937570814987  0.1279956393030215  1.0000
  H   H7        1.0  0.038005709483599714  0.21936889683728555  0.892368223778434  1.0000
  H   H8        1.0  0.03251356804034323  0.34308454535769783  0.45087051363277064  1.0000
  H   H9        1.0  0.06537475025848932  0.22727109956069458  0.2513857541430893  1.0000
  H   H10       1.0  0.0545882498596619  0.8091411379747651  0.4597478533073216  1.0000
  H   H11       1.0  0.03535309274427842  0.6912125022825265  0.7900987808502011  1.0000
  H   H12       1.0  0.11651515846780253  0.8374440822699757  0.04174649385788331  1.0000
  C   C21       1.0  0.0265796476023543  0.5662755026357007  0.19287517213306038  1.0000
  C   C22       1.0  0.1047944500446476  0.6391752199055043  0.187332553182606  1.0000
  C   C23       1.0  0.14370602581234193  0.6774243951647503  0.06731952659169926  1.0000
  C   C24       1.0  0.10499797222321411  0.6393645637765342  0.9520347920691505  1.0000
  C   C25       1.0  0.026734530063932994  0.5664208977930179  0.9555090579620004  1.0000
  C   C26       1.0  0.9878923675065342  0.5306152166771223  0.07636346020161922  1.0000
  C   C27       1.0  0.22855070284378465  0.7516363129969881  0.06277089723916673  1.0000
  O   O2        1.0  0.29266163298399395  0.6456719438703236  0.07024413188455525  1.0000
  C   C28       1.0  0.3726674819450635  0.7139884453902876  0.06609352007958558  1.0000
  H   H13       1.0  0.9970869544797375  0.5368555780542091  0.5224989182686266  1.0000
  H   H14       1.0  0.13577878567424562  0.6664786225819237  0.27622364379997655  1.0000
  H   H15       1.0  0.1361219069584444  0.666799266320198  0.859751758274272  1.0000
  H   H16       1.0  0.9275737264894214  0.47438083381690443  0.079875820867918  1.0000
  H   H17       1.0  0.8795580407456202  0.4273763068545439  0.7549113082778347  1.0000
  H   H18       1.0  0.23346218403012087  0.8219648506748147  0.14562013441478694  1.0000
  H   H19       1.0  0.23365863167182588  0.821984653599111  0.970506723116691  1.0000
  H   H20       1.0  0.42234998698189297  0.6294702664427938  0.07203889382438544  1.0000
  H   H21       1.0  0.38164510821643916  0.7808427175306812  0.15040780459518333  1.0000
  H   H22       1.0  0.38185235108212856  0.7809005531424521  0.9728975398623447  1.0000
  Zn  Zn1       1.0  0.9338192544164173  0.5673853213477876  0.5739155621925529  1.0000
  Zn  Zn2       1.0  0.11948679020689457  0.5653104940166926  0.5744680202700605  1.0000
  C   C29       1.0  0.026668430788518757  0.5606494090935976  0.8113423974459166  1.0000
  C   C30       1.0  0.026639652403869  0.5720482029044072  0.33704132245765095  1.0000
  C   C31       1.0  0.028252541283475974  0.8296882181510099  0.5695907009167658  1.0000
  C   C32       1.0  0.025055468036722095  0.3030076622528367  0.5787930842576468  1.0000
  O   O3        1.0  0.09711961454181  0.573191897338792  0.3856344407529415  1.0000
  O   O4        1.0  0.09710582557289625  0.557929880921616  0.7631682058862705  1.0000
  O   O5        1.0  0.09838406527292148  0.7751821325673885  0.567952000941911  1.0000
  O   O6        1.0  0.09584131152896264  0.35593965669685984  0.5808505481698358  1.0000
  O   O7        1.0  0.9574646697351394  0.7767561593772256  0.5675330340974241  1.0000
  O   O8        1.0  0.956186440548094  0.5595056400352167  0.7627491735755856  1.0000
  O   O9        1.0  0.9562002289508875  0.574767605908959  0.3852138471452293  1.0000
  O   O10       1.0  0.9549219258916526  0.3575153549727921  0.580430051894236  1.0000
