data_image0
_chemical_formula_structural       NC5NC3BrH3C6NCH9C6NCOH5Zn2C4O8
_chemical_formula_sum              "N4 C26 Br1 H17 O9 Zn2"
_cell_length_a       13.839083392302014
_cell_length_b       9.273386996610926
_cell_length_c       9.27373355559583
_cell_angle_alpha    86.07967468279998
_cell_angle_beta     90.01178760078571
_cell_angle_gamma    89.42455387291925

_space_group_name_H-M_alt    "P 1"
_space_group_IT_number       1

loop_
  _space_group_symop_operation_xyz
  'x, y, z'

loop_
  _atom_site_type_symbol
  _atom_site_label
  _atom_site_symmetry_multiplicity
  _atom_site_fract_x
  _atom_site_fract_y
  _atom_site_fract_z
  _atom_site_occupancy
  N   N1        1.0  0.8987039540789222  0.5623826784507566  0.40766676701489546  1.0000
  C   C1        1.0  0.8271492601935183  0.49873760988507887  0.4102355191532847  1.0000
  C   C2        1.0  0.7379972438087425  0.4195411376641907  0.4134317772767224  1.0000
  C   C3        1.0  0.649904468420943  0.49574534138298193  0.41035647715115237  1.0000
  C   C4        1.0  0.562383709490268  0.4210139410794509  0.4133722807572764  1.0000
  C   C5        1.0  0.47207196397364415  0.4995696688327915  0.4102019215339763  1.0000
  N   N2        1.0  0.3994730114115397  0.5627223133459653  0.40765300424471707  1.0000
  C   C6        1.0  0.5628920853108292  0.26976681751717146  0.4194760041921879  1.0000
  C   C7        1.0  0.6505406682928456  0.19344133844236897  0.4225561071567929  1.0000
  C   C8        1.0  0.7382624809443219  0.2674585751230185  0.41956914449143334  1.0000
  Br  Br1       1.0  0.8564401622196903  0.1573621247047996  0.4240122816429004  1.0000
  H   H1        1.0  0.6494554297120627  0.6129490594094091  0.405626408685154  1.0000
  H   H2        1.0  0.49561177950477975  0.21091095614413402  0.4218509214448954  1.0000
  H   H3        1.0  0.6502247561173261  0.07648683656397194  0.4272757408055139  1.0000
  C   C9        1.0  0.15206453837003495  0.13890811777734746  0.4083680250791002  1.0000
  C   C10       1.0  0.1690237853614205  0.22099571343977442  0.27805723140946403  1.0000
  C   C11       1.0  0.1768850067565515  0.15509856400751554  0.14773863204777782  1.0000
  C   C12       1.0  0.16790582446249602  0.004755939229176058  0.14439888475779328  1.0000
  C   C13       1.0  0.1526493850389561  0.9217017224082175  0.27425696283956347  1.0000
  C   C14       1.0  0.14612172992009498  0.9861858663949047  0.40696428306307286  1.0000
  N   N3        1.0  0.1749500496267593  0.933792915130775  0.011389755868217222  1.0000
  C   C15       1.0  0.19103924557451668  0.010189882731542983  0.8707495768688474  1.0000
  H   H4        1.0  0.17181885164517618  0.4036074003048901  0.6449798519278451  1.0000
  H   H5        1.0  0.1739521653346121  0.3376259594784116  0.27628894320930075  1.0000
  H   H6        1.0  0.18906525902548935  0.22265756526284197  0.0498427183805219  1.0000
  H   H7        1.0  0.14808838286290293  0.8052731420578829  0.2719835181508745  1.0000
  H   H8        1.0  0.1817187458551779  0.8586179735023015  0.7579868262008906  1.0000
  H   H9        1.0  0.1681187883407571  0.8214532563354981  0.014378507527813111  1.0000
  H   H10       1.0  0.1311358006826855  0.08845388964613843  0.8457106672853758  1.0000
  H   H11       1.0  0.26097833966319905  0.0677915592370999  0.8709802206606617  1.0000
  H   H12       1.0  0.19347040607035204  0.9318386111786398  0.7854287822223922  1.0000
  C   C16       1.0  0.14906973319470107  0.5580016825837739  0.9844466670077381  1.0000
  C   C17       1.0  0.060317314400847755  0.549661180552857  0.058414288703198876  1.0000
  C   C18       1.0  0.9723616469983208  0.5530124866725434  0.9834615687706756  1.0000
  C   C19       1.0  0.9730997507890924  0.5693936731978637  0.8320866709744998  1.0000
  C   C20       1.0  0.06041432982688977  0.5755804629753696  0.7569186633180358  1.0000
  C   C21       1.0  0.149116551601328  0.5670922994104586  0.8308856352121681  1.0000
  N   N4        1.0  0.8833002554592883  0.54789219881643  0.06348688606893971  1.0000
  C   C22       1.0  0.7967107218849564  0.48140039983177685  0.01681692199839091  1.0000
  O   O1        1.0  0.7967381019125829  0.40505387077276106  0.9095925953356443  1.0000
  H   H13       1.0  0.376067994109343  0.6583296193309744  0.08058788878330136  1.0000
  H   H14       1.0  0.906298707010158  0.5789536705976845  0.7714579779408917  1.0000
  H   H15       1.0  0.3028084213594955  0.6285678209685668  0.545673481332269  1.0000
  H   H16       1.0  0.882685154465469  0.5862507294184272  0.16684234071085838  1.0000
  H   H17       1.0  0.7305817421433813  0.4934544532344028  0.07721953196612263  1.0000
  Zn  Zn1       1.0  0.04321511736028838  0.5624769112758654  0.40767113086958906  1.0000
  Zn  Zn2       1.0  0.2549619238625216  0.5626163830056261  0.4076604874593883  1.0000
  C   C23       1.0  0.1491458583261811  0.5596268011794601  0.6709000490783914  1.0000
  C   C24       1.0  0.14903348240570402  0.5654683164081246  0.14443170757287493  1.0000
  C   C25       1.0  0.14723977209144512  0.8259706671408296  0.4014865138310879  1.0000
  C   C26       1.0  0.15093950854739102  0.29912271795911377  0.4138453225322059  1.0000
  O   O2        1.0  0.2293781699941848  0.5680208219224274  0.19812011997680035  1.0000
  O   O3        1.0  0.22951210499585706  0.5571790586985164  0.6172031455044868  1.0000
  O   O4        1.0  0.22797183309022362  0.7722551142211498  0.39964980721600285  1.0000
  O   O5        1.0  0.23091836956661457  0.3529447755117108  0.41567335019147555  1.0000
  O   O6        1.0  0.06725859939739087  0.772148518723675  0.39965826813355076  1.0000
  O   O7        1.0  0.06879885913726835  0.5570741956425771  0.6172115267060563  1.0000
  O   O8        1.0  0.06866492445662463  0.5679158899844077  0.19812676851640942  1.0000
  O   O9        1.0  0.07020512410345359  0.35283983441566824  0.41568010680094303  1.0000
