data_image0
_chemical_formula_structural       NC9NC3OH6C6FH3C8H9Zn2C4O8
_chemical_formula_sum              "N2 C30 O9 H18 F1 Zn2"
_cell_length_a       15.78231758774541
_cell_length_b       9.275642734913905
_cell_length_c       9.275657083861812
_cell_angle_alpha    85.77689565722392
_cell_angle_beta     89.58874472212383
_cell_angle_gamma    90.23470761467162

_space_group_name_H-M_alt    "P 1"
_space_group_IT_number       1

loop_
  _space_group_symop_operation_xyz
  'x, y, z'

loop_
  _atom_site_type_symbol
  _atom_site_label
  _atom_site_symmetry_multiplicity
  _atom_site_fract_x
  _atom_site_fract_y
  _atom_site_fract_z
  _atom_site_occupancy
  N   N1        1.0  0.8156212625912619  0.5612005518486112  0.41040595027086635  1.0000
  C   C1        1.0  0.7663903304936601  0.47020750132025585  0.4372637968304148  1.0000
  C   C2        1.0  0.7052685029689624  0.35726300977389003  0.47060130169496067  1.0000
  C   C3        1.0  0.7238418181361338  0.2153860699829838  0.5123904375193951  1.0000
  C   C4        1.0  0.6465829151620337  0.14662738075057669  0.5327258382821374  1.0000
  C   C5        1.0  0.5856082164362685  0.251632791796024  0.5018429149708228  1.0000
  C   C6        1.0  0.49236771064941437  0.23221942507323703  0.5076545534284895  1.0000
  C   C7        1.0  0.43953718651540824  0.3512552688325752  0.4724617082221221  1.0000
  C   C8        1.0  0.35120805411913114  0.3353368148166221  0.47723506060153403  1.0000
  C   C9        1.0  0.2977076890634472  0.45783602066935614  0.44100910800237286  1.0000
  N   N2        1.0  0.2547061761259917  0.5563095702070451  0.41188668676135776  1.0000
  C   C10       1.0  0.31502678599022316  0.200205360598424  0.5172558931423443  1.0000
  C   C11       1.0  0.366928244019542  0.08141564521334498  0.5523808143846378  1.0000
  C   C12       1.0  0.4550683520163482  0.0968967864325283  0.5477371818841497  1.0000
  O   O1        1.0  0.6230223471372065  0.376077291482918  0.46513445965701017  1.0000
  H   H1        1.0  0.7859351690364891  0.16753978303591752  0.5264267915600778  1.0000
  H   H2        1.0  0.6369826713621312  0.03356944057736566  0.5660434032053727  1.0000
  H   H3        1.0  0.4669508927885319  0.4564114737743121  0.4413131633920446  1.0000
  H   H4        1.0  0.24680663173775721  0.1867232450385372  0.5212963185486261  1.0000
  H   H5        1.0  0.3387897451977182  0.9769783451036749  0.5833168817760028  1.0000
  H   H6        1.0  0.4934318071757092  0.002807013828014741  0.5755677502810956  1.0000
  C   C13       1.0  0.03254461361061464  0.1352434612965825  0.4117573146080329  1.0000
  C   C14       1.0  0.016804987121127532  0.2180627685221166  0.2814770144539773  1.0000
  C   C15       1.0  0.009055153876855739  0.1522054839427367  0.1516683439838975  1.0000
  C   C16       1.0  0.016993196119974727  0.0028168031479995923  0.1498461076814781  1.0000
  C   C17       1.0  0.03121173497156859  0.9184145937261153  0.27810473065649166  1.0000
  C   C18       1.0  0.03779079665120763  0.9822555531723036  0.41054779318049595  1.0000
  F   F1        1.0  0.994815214510306  0.23382313202038432  0.026929692621742378  1.0000
  H   H7        1.0  0.11846426438908186  0.21508601454161555  0.7340371318936179  1.0000
  H   H8        1.0  0.011317811831505367  0.9519008594583388  0.049009151422539254  1.0000
  H   H9        1.0  0.09224386900374193  0.6853476152356509  0.6293486732916673  1.0000
  C   C19       1.0  0.03731237976611787  0.5565513944676694  0.9878430664061244  1.0000
  C   C20       1.0  0.08188172523308612  0.6660003210235079  0.05277446180519329  1.0000
  C   C21       1.0  0.11900812656255844  0.7817051883704137  0.9689928479777294  1.0000
  C   C22       1.0  0.11281654024244764  0.7869632067266092  0.8183255640243297  1.0000
  C   C23       1.0  0.07008113807678451  0.678139604037141  0.751946813804433  1.0000
  C   C24       1.0  0.03302300690692106  0.5609476090298986  0.8344620881126086  1.0000
  C   C25       1.0  0.16752995536717485  0.8968237423685794  0.04018881254476247  1.0000
  C   C26       1.0  0.26033795727762565  0.8546338859181226  0.05840602560169961  1.0000
  H   H10       1.0  0.9978566572928413  0.32690129920696137  0.28587040953289455  1.0000
  H   H11       1.0  0.08624580928205905  0.6632777429525174  0.16951807855134304  1.0000
  H   H12       1.0  0.14192572847906795  0.8747912528528664  0.7519097847308771  1.0000
  H   H13       1.0  0.9319579149548279  0.39584803042299876  0.5665276958420011  1.0000
  H   H14       1.0  0.16353843752525288  0.0015743005089072914  0.9741833487772403  1.0000
  H   H15       1.0  0.1394512784200661  0.9134712109786731  0.14794695313227701  1.0000
  H   H16       1.0  0.2657339964411911  0.7519710040700951  0.12732105519734693  1.0000
  H   H17       1.0  0.2900715572501973  0.8410285797693222  0.9513507134807191  1.0000
  H   H18       1.0  0.29494610777778774  0.9408275797127579  0.11096390904385589  1.0000
  Zn  Zn1       1.0  0.942331614235322  0.5597853110767705  0.4108415818886919  1.0000
  Zn  Zn2       1.0  0.12799566338201473  0.5577131014175618  0.4114628557876303  1.0000
  C   C27       1.0  0.03379631680165529  0.5543712748499465  0.6744411397403769  1.0000
  C   C28       1.0  0.03653299881518546  0.5631289354437174  0.1478634436062003  1.0000
  C   C29       1.0  0.03682388294387026  0.8221224619365337  0.405032114264289  1.0000
  C   C30       1.0  0.033505358197424034  0.29537601674151537  0.41727254819761916  1.0000
  O   O2        1.0  0.1067299315332934  0.5645437336887879  0.20180352319009476  1.0000
  O   O3        1.0  0.10451409677591127  0.5513826272809843  0.6209721792647838  1.0000
  O   O4        1.0  0.10695793731567632  0.767595115413534  0.4034224797596102  1.0000
  O   O5        1.0  0.10428602825046555  0.3483312560189269  0.4193531143852085  1.0000
  O   O6        1.0  0.9660411860088916  0.7691671571840804  0.40295132307151915  1.0000
  O   O7        1.0  0.9635973565866924  0.5529564013758198  0.6205009432417672  1.0000
  O   O8        1.0  0.9658131998699135  0.5661174485265537  0.2013305541252055  1.0000
  O   O9        1.0  0.9633692959721688  0.349904961102679  0.4188802534107843  1.0000
