data_image0
_chemical_formula_structural       NC5NC3OH4C6NCH9C7OH5Zn2C4O8
_chemical_formula_sum              "N3 C26 O10 H18 Zn2"
_cell_length_a       13.84702359539666
_cell_length_b       9.273386996610926
_cell_length_c       9.274074313596557
_cell_angle_alpha    86.02935137670892
_cell_angle_beta     90.21930263959183
_cell_angle_gamma    89.39943260271846

_space_group_name_H-M_alt    "P 1"
_space_group_IT_number       1

loop_
  _space_group_symop_operation_xyz
  'x, y, z'

loop_
  _atom_site_type_symbol
  _atom_site_label
  _atom_site_symmetry_multiplicity
  _atom_site_fract_x
  _atom_site_fract_y
  _atom_site_fract_z
  _atom_site_occupancy
  N   N1        1.0  0.8940388522611916  0.5632844091371347  0.4072993996217036  1.0000
  C   C1        1.0  0.8221235213210571  0.5552307421212632  0.4703641680955748  1.0000
  C   C2        1.0  0.7325619368836068  0.5452022253474537  0.548893092793875  1.0000
  C   C3        1.0  0.6447026088818748  0.5548904022657069  0.47302851464666595  1.0000
  C   C4        1.0  0.5571131935381388  0.5453147862532786  0.5480112538203229  1.0000
  C   C5        1.0  0.46697882470257773  0.555289524639299  0.4699035577213069  1.0000
  N   N2        1.0  0.3945224439441319  0.5633084507458843  0.40711119697254516  1.0000
  C   C6        1.0  0.5573785722994885  0.5260220867840314  0.6990839643799548  1.0000
  C   C7        1.0  0.6448579210724067  0.5163248526747879  0.7750165793628967  1.0000
  C   C8        1.0  0.7327645223825932  0.5258387726442162  0.700518557999745  1.0000
  O   O1        1.0  0.8199647144344592  0.5161250014786862  0.776582585720174  1.0000
  H   H1        1.0  0.6445015956546265  0.5698368438104059  0.3559903776370308  1.0000
  H   H2        1.0  0.49003791651050244  0.5184855640197679  0.7580988308280563  1.0000
  H   H3        1.0  0.6442797403569558  0.5014080638997054  0.8918232887933828  1.0000
  H   H4        1.0  0.8218933340290505  0.5021642664882302  0.8859019585549268  1.0000
  C   C9        1.0  0.14725684590443858  0.1396495332211709  0.407912391943581  1.0000
  C   C10       1.0  0.16386657356514545  0.22184658485508266  0.27759125351187164  1.0000
  C   C11       1.0  0.17138344129066363  0.15606463219751143  0.1472654795489865  1.0000
  C   C12       1.0  0.1624006671668863  0.005730745305344345  0.1439287476091704  1.0000
  C   C13       1.0  0.14749159575848833  0.922566416791834  0.2737965616612379  1.0000
  C   C14       1.0  0.14131376397131912  0.986932321236645  0.4065106730685999  1.0000
  N   N3        1.0  0.16909398742532966  0.9348859134657215  0.010912637252908473  1.0000
  C   C15       1.0  0.1848072208102416  0.011402408817981833  0.8702620651389155  1.0000
  H   H5        1.0  0.1676169857160139  0.4041182155032283  0.6445253876009966  1.0000
  H   H6        1.0  0.16878753256457912  0.3384753553356321  0.275821187718158  1.0000
  H   H7        1.0  0.18330143677180866  0.2237062153414597  0.049361989660248635  1.0000
  H   H8        1.0  0.14292726425163949  0.8061428068675663  0.27152462899102897  1.0000
  H   H9        1.0  0.1778059605293174  0.8590183597564196  0.7575327580146605  1.0000
  H   H10       1.0  0.16227441477053173  0.8225478041897412  0.013903871147329383  1.0000
  H   H11       1.0  0.12487262001808008  0.0897272524218706  0.8452431781999739  1.0000
  H   H12       1.0  0.2547070500317603  0.06895979682112507  0.870468344815535  1.0000
  H   H13       1.0  0.18701447773321433  0.9331282690753211  0.7849375195497267  1.0000
  C   C16       1.0  0.1431581552468597  0.5591358317296067  0.9839776500515104  1.0000
  C   C17       1.0  0.058656857651724126  0.6017231983691249  0.05382770905946321  1.0000
  C   C18       1.0  0.9788297705931898  0.6559048495466284  0.9745857135409759  1.0000
  C   C19       1.0  0.9816354590477978  0.6689403046096671  0.8232830565354226  1.0000
  C   C20       1.0  0.06484505321695466  0.6246111570634139  0.7522964835207033  1.0000
  C   C21       1.0  0.1454124419866123  0.5674459959717961  0.8304454380317132  1.0000
  C   C22       1.0  0.8981571043857003  0.7270890681471815  0.7378273848442864  1.0000
  O   O2        1.0  0.8221982892230381  0.7672813867888602  0.7984956246181891  1.0000
  H   H14       1.0  0.3793782330837696  0.5223917802314567  0.09073828005551943  1.0000
  H   H15       1.0  0.9152339943007951  0.6889274335874962  0.03195656067213438  1.0000
  H   H16       1.0  0.06591505311433488  0.6316025212847081  0.635127833196897  1.0000
  H   H17       1.0  0.3042335945123731  0.5374690661660224  0.5529695643316677  1.0000
  H   H18       1.0  0.901524933807453  0.7358459881652359  0.6209420904841934  1.0000
  Zn  Zn1       1.0  0.03846765327598889  0.5632875665146666  0.40725340522344133  1.0000
  Zn  Zn2       1.0  0.2500937329929813  0.5632936045033099  0.4071689731674606  1.0000
  C   C23       1.0  0.14502451658228654  0.5601280071111812  0.6704543678523363  1.0000
  C   C24       1.0  0.1435391682457488  0.5664549856362011  0.1439681480642434  1.0000
  C   C25       1.0  0.1424168827455774  0.8267214677739119  0.40103232780140985  1.0000
  C   C26       1.0  0.14614674223155322  0.2998597924502069  0.413390267850851  1.0000
  O   O3        1.0  0.22397807818940274  0.5689073580960673  0.19763038961588733  1.0000
  O   O4        1.0  0.22520491097859496  0.5576791249386559  0.6167276312392087  1.0000
  O   O5        1.0  0.223098135037938  0.7729567306401111  0.3991674256426998  1.0000
  O   O6        1.0  0.2260847815562288  0.3536297616517552  0.41519048716011575  1.0000
  O   O7        1.0  0.06247653249511509  0.772951409365658  0.3992318912520157  1.0000
  O   O8        1.0  0.06458329606905067  0.5576755361869017  0.6167920171340726  1.0000
  O   O9        1.0  0.06335645908189803  0.5689037020595071  0.19769304278971125  1.0000
  O   O10       1.0  0.06546316280492892  0.353626096357488  0.41525324840744937  1.0000
