data_image0
_chemical_formula_structural       NC9NC3OH6C6BrH3C7H8Zn2C4O8
_chemical_formula_sum              "N2 C29 O9 H17 Br1 Zn2"
_cell_length_a       15.78231758774541
_cell_length_b       10.302969083221269
_cell_length_c       9.274345330872308
_cell_angle_alpha    85.12370452166175
_cell_angle_beta     89.64000707228584
_cell_angle_gamma    89.63144763104106

_space_group_name_H-M_alt    "P 1"
_space_group_IT_number       1

loop_
  _space_group_symop_operation_xyz
  'x, y, z'

loop_
  _atom_site_type_symbol
  _atom_site_label
  _atom_site_symmetry_multiplicity
  _atom_site_fract_x
  _atom_site_fract_y
  _atom_site_fract_z
  _atom_site_occupancy
  N   N1        1.0  0.805046005871607  0.42369553590005266  0.4108225191392981  1.0000
  C   C1        1.0  0.7563939074429771  0.3414750483535929  0.43758096071802915  1.0000
  C   C2        1.0  0.6959905534090821  0.2394194351484411  0.4707950802857807  1.0000
  C   C3        1.0  0.7154663396078479  0.11122174277640173  0.5124291229900293  1.0000
  C   C4        1.0  0.638644853973369  0.04909155576884605  0.532689454661514  1.0000
  C   C5        1.0  0.5770022480652456  0.14397220633528418  0.50192137067125  1.0000
  C   C6        1.0  0.4838852829452768  0.12642952639855068  0.5077118941612266  1.0000
  C   C7        1.0  0.43029750368518077  0.23398989116227575  0.47264902318570495  1.0000
  C   C8        1.0  0.3420696759529648  0.2196052597417231  0.4774050709328457  1.0000
  C   C9        1.0  0.2877900181126409  0.3302952118186022  0.44131286371210066  1.0000
  N   N2        1.0  0.2441620535493785  0.41927566213262635  0.41229795485729664  1.0000
  C   C10       1.0  0.3067480958964297  0.09750015959388914  0.5172784337542449  1.0000
  C   C11       1.0  0.3594052460518266  0.9901621397307488  0.552273655042177  1.0000
  C   C12       1.0  0.44744683162614374  0.004151611923596918  0.5476468501653777  1.0000
  O   O1        1.0  0.6136247636971338  0.2564188515506842  0.46534889055045336  1.0000
  H   H1        1.0  0.7778640057294248  0.06798926852753538  0.5264131091969593  1.0000
  H   H2        1.0  0.6297637748637387  0.9469340471450172  0.5658834493445128  1.0000
  H   H3        1.0  0.45704221738129736  0.32900934599089154  0.4416152299224456  1.0000
  H   H4        1.0  0.23861374016158463  0.0853171404385431  0.521304200328444  1.0000
  H   H5        1.0  0.33193116647969123  0.8957922839872869  0.5830957559083751  1.0000
  H   H6        1.0  0.48640885309763865  0.9191322783588227  0.5753746975890917  1.0000
  C   C13       1.0  0.024608036379001098  0.04023801250029991  0.4115665238586226  1.0000
  C   C14       1.0  0.11234362530197495  0.036273596904259575  0.43618340335002664  1.0000
  C   C15       1.0  0.1558652005536138  0.9173691840158759  0.44839451340250286  1.0000
  C   C16       1.0  0.11234369306829411  0.8011912385103368  0.43618312973518253  1.0000
  C   C17       1.0  0.024608049838982887  0.8027230303814432  0.411566428224891  1.0000
  C   C18       1.0  0.9811639281363422  0.9228413254620028  0.399376927349417  1.0000
  Br  Br1       1.0  0.27520070236326344  0.913631248958259  0.48187809794549574  1.0000
  H   H7        1.0  0.14726950353736656  0.1251789302927777  0.4459830764356953  1.0000
  H   H8        1.0  0.1472696061807658  0.7100979996006405  0.4459824266857797  1.0000
  H   H9        1.0  0.9134988669053256  0.9249607392117228  0.38039163605470727  1.0000
  C   C19       1.0  0.02652483239185809  0.42438036555910125  0.9877704649996222  1.0000
  C   C20       1.0  0.9760741694245529  0.5163358352001746  0.052860517341445805  1.0000
  C   C21       1.0  0.9205578513524003  0.5979016163995228  0.9706403552607301  1.0000
  C   C22       1.0  0.9135315467652049  0.5884216893525778  0.8216725399840623  1.0000
  C   C23       1.0  0.9652960225890068  0.500103281691084  0.7545826156006797  1.0000
  C   C24       1.0  0.02269122927444588  0.41858070625268273  0.8353624617330233  1.0000
  C   C25       1.0  0.8551340984838856  0.6781957353515009  0.7329475125598579  1.0000
  H   H10       1.0  0.12379750353264102  0.14062089821513246  0.11643377533562727  1.0000
  H   H11       1.0  0.9782316177459407  0.5232808790325154  0.16868475818341963  1.0000
  H   H12       1.0  0.8823113873776354  0.6676376808008833  0.023674051683163718  1.0000
  H   H13       1.0  0.9620882825647512  0.49717554639221273  0.6381797799207303  1.0000
  H   H14       1.0  0.09126600731329954  0.23019645298184743  0.5716974749974603  1.0000
  H   H15       1.0  0.8897366194633513  0.7679878789478414  0.6939397560144454  1.0000
  H   H16       1.0  0.7995304461752526  0.7052009883885821  0.7983356089312466  1.0000
  H   H17       1.0  0.8313299484584828  0.630457463696463  0.6382659269956847  1.0000
  Zn  Zn1       1.0  0.9317653704948141  0.4224165309543595  0.41125662512766176  1.0000
  Zn  Zn2       1.0  0.11744260707491923  0.4205439902583166  0.4118756462494426  1.0000
  C   C26       1.0  0.023413991593951952  0.41450494341029565  0.6751494478490914  1.0000
  C   C27       1.0  0.02579601292480649  0.4284571944830031  0.14798297193455  1.0000
  C   C28       1.0  0.024629697736196603  0.658636539444712  0.40581553283346977  1.0000
  C   C29       1.0  0.024580243075870353  0.18432403875521963  0.4173169636805114  1.0000
  O   O2        1.0  0.09601495807080646  0.42910913213909346  0.20198666811153274  1.0000
  O   O3        1.0  0.09411977461240917  0.41243081412557503  0.6216151589442571  1.0000
  O   O4        1.0  0.09510051602758768  0.6095701647003153  0.40412611382004154  1.0000
  O   O5        1.0  0.09503415378597664  0.23196979223100203  0.4194756048169662  1.0000
  O   O6        1.0  0.954173760421262  0.6109907296221448  0.4036566663413052  1.0000
  O   O7        1.0  0.9531930193502809  0.4138529393812438  0.6211456345163489  1.0000
  O   O8        1.0  0.9550882107127474  0.4305312240251444  0.20151540857808498  1.0000
  O   O9        1.0  0.9541074059350753  0.23339187409087558  0.4190044534834685  1.0000
