data_image0
_chemical_formula_structural       NC9NC3OH6C6BrH3C6NH7Zn2C4O8
_chemical_formula_sum              "N3 C28 O9 H16 Br1 Zn2"
_cell_length_a       15.78231758774541
_cell_length_b       10.302969083221269
_cell_length_c       9.274774538082514
_cell_angle_alpha    85.06360997403345
_cell_angle_beta     90.43038941912484
_cell_angle_gamma    89.63144763104106

_space_group_name_H-M_alt    "P 1"
_space_group_IT_number       1

loop_
  _space_group_symop_operation_xyz
  'x, y, z'

loop_
  _atom_site_type_symbol
  _atom_site_label
  _atom_site_symmetry_multiplicity
  _atom_site_fract_x
  _atom_site_fract_y
  _atom_site_fract_z
  _atom_site_occupancy
  N   N1        1.0  0.7921560193408372  0.42533051964601665  0.41072724114020764  1.0000
  C   C1        1.0  0.7437209614603456  0.34308250237579974  0.4374872870021628  1.0000
  C   C2        1.0  0.6835870106611532  0.24099271769119793  0.47070339789869453  1.0000
  C   C3        1.0  0.7034004949812066  0.11275219122169645  0.5123399367421915  1.0000
  C   C4        1.0  0.6267433430385267  0.05060115990104809  0.5326014831073684  1.0000
  C   C5        1.0  0.5648511739488276  0.14551346540711685  0.501831554438638  1.0000
  C   C6        1.0  0.47178117637697126  0.12796482804152376  0.5076224250953089  1.0000
  C   C7        1.0  0.41790899846408325  0.2355612663243003  0.47255745195043874  1.0000
  C   C8        1.0  0.3297197475378807  0.22117174176823906  0.47731378484302006  1.0000
  C   C9        1.0  0.27514734198967394  0.3318988263698819  0.4412194137398087  1.0000
  N   N2        1.0  0.2312840344336784  0.42090912791508645  0.41220276531689926  1.0000
  C   C10       1.0  0.29472158454199116  0.09902561895245544  0.5171895382433649  1.0000
  C   C11       1.0  0.3476625846364136  0.991651595169878  0.5521868576447562  1.0000
  C   C12       1.0  0.43566664170729985  0.005645827530083687  0.547559775371181  1.0000
  O   O1        1.0  0.601177046328573  0.25799773726350983  0.4652568816409568  1.0000
  H   H1        1.0  0.7659115866930803  0.06950532991384661  0.526324761349011  1.0000
  H   H2        1.0  0.6181315039285312  0.9484095005027313  0.5657974679125739  1.0000
  H   H3        1.0  0.44440199378262396  0.33061264946059254  0.4415217980783033  1.0000
  H   H4        1.0  0.22661988222537188  0.08683845799231227  0.5212155461795192  1.0000
  H   H5        1.0  0.32043850638244437  0.8972500289129338  0.5830108064279644  1.0000
  H   H6        1.0  0.4748535666802123  0.9205979668936672  0.5752892851981521  1.0000
  C   C13       1.0  0.011724084549155075  0.04187223079643965  0.41147129046580266  1.0000
  C   C14       1.0  0.09965934358380335  0.03788248876686429  0.43608964584460796  1.0000
  C   C15       1.0  0.14327996443984947  0.9189655127968255  0.4483014880054526  1.0000
  C   C16       1.0  0.09965940913080362  0.8028001306544427  0.4360893722133592  1.0000
  C   C17       1.0  0.011724097233441809  0.8043572487759733  0.41147119482633765  1.0000
  C   C18       1.0  0.9681811052007127  0.9244880847061505  0.3992809631380583  1.0000
  Br  Br1       1.0  0.26288705514309885  0.9151931290277565  0.481787080032805  1.0000
  H   H7        1.0  0.13466470800346408  0.1267777400176704  0.44588990646266696  1.0000
  H   H8        1.0  0.13466480537667325  0.711696809994011  0.4458892566737956  1.0000
  H   H9        1.0  0.9003620522651699  0.9266270309769719  0.38029453359378973  1.0000
  C   C19       1.0  0.010203425931377016  0.42645059536193747  0.9876498232172444  1.0000
  C   C20       1.0  0.07024389904635342  0.5024598672158167  0.05458806237846248  1.0000
  C   C21       1.0  0.13408576939118622  0.56773641897863  0.9740376493924457  1.0000
  C   C22       1.0  0.13840422883682346  0.5572974608499961  0.8250747456441088  1.0000
  C   C23       1.0  0.07863560603301595  0.48414542607655187  0.756434857022886  1.0000
  C   C24       1.0  0.01324474951361165  0.4197788662177076  0.8352926693643985  1.0000
  N   N3        1.0  0.1950989881416264  0.643555278081978  0.0439844021945124  1.0000
  H   H10       1.0  0.8835476822471703  0.17393547003019383  0.1131445974024965  1.0000
  H   H11       1.0  0.06871865625697121  0.5086325976287822  0.17060306612541698  1.0000
  H   H12       1.0  0.18769494876996232  0.6069614010669893  0.7617095882402827  1.0000
  H   H13       1.0  0.08241403432940347  0.48049607265482863  0.640274503608913  1.0000
  H   H14       1.0  0.9253353311754767  0.253679582419593  0.5689155273415323  1.0000
  H   H15       1.0  0.1926384213133262  0.6517215017771181  0.15534605650978195  1.0000
  H   H16       1.0  0.24316669704842486  0.6922105908242852  0.9849038201763385  1.0000
  Zn  Zn1       1.0  0.9188789050436029  0.4240510680817151  0.4111613731550854  1.0000
  Zn  Zn2       1.0  0.10456116256946085  0.4221778905219582  0.41178043138983483  1.0000
  C   C25       1.0  0.012667988722543374  0.41586798129919456  0.675070017381933  1.0000
  C   C26       1.0  0.010774107043287396  0.43036259383241715  0.1478719355784224  1.0000
  C   C27       1.0  0.011699099010239017  0.6602766744977668  0.40571995464409727  1.0000
  C   C28       1.0  0.01174293367126821  0.18595234086153511  0.4172220750511979  1.0000
  O   O2        1.0  0.08143108187742243  0.4309589711961333  0.20187886950837908  1.0000
  O   O3        1.0  0.08293954946486815  0.41384892936943607  0.6215325188671013  1.0000
  O   O4        1.0  0.08215621424543257  0.6112120378679993  0.4040304343427603  1.0000
  O   O5        1.0  0.0822143533478108  0.23359587347576302  0.4193808456074382  1.0000
  O   O6        1.0  0.9412256509009841  0.6126330857686065  0.40356095871863634  1.0000
  O   O7        1.0  0.9420089858404744  0.4152715376830498  0.6210629662891922  1.0000
  O   O8        1.0  0.9405005120834736  0.4323815479252468  0.20140758172090312  1.0000
  O   O9        1.0  0.9412837839386405  0.2350184400673807  0.4189096660263992  1.0000
