data_image0
_chemical_formula_structural       NC9NC3OH6C6SCOC6H10C6NCOC6H10Zn2C4O8
_chemical_formula_sum              "N3 C42 O11 H26 S1 Zn2"
_cell_length_a       15.78231758774541
_cell_length_b       10.302038109246572
_cell_length_c       10.299662537453274
_cell_angle_alpha    85.5465134691658
_cell_angle_beta     90.07028812251602
_cell_angle_gamma    89.64990665055792

_space_group_name_H-M_alt    "P 1"
_space_group_IT_number       1

loop_
  _space_group_symop_operation_xyz
  'x, y, z'

loop_
  _atom_site_type_symbol
  _atom_site_label
  _atom_site_symmetry_multiplicity
  _atom_site_fract_x
  _atom_site_fract_y
  _atom_site_fract_z
  _atom_site_occupancy
  N   N1        1.0  0.7983744763544338  0.4134577362088858  0.5700632800439964  1.0000
  C   C1        1.0  0.7498224538325245  0.3314050325718847  0.5941334020257205  1.0000
  C   C2        1.0  0.6895433200318574  0.22955768251748365  0.6240106245469801  1.0000
  C   C3        1.0  0.7091747598940913  0.10162102754479241  0.6614618196718687  1.0000
  C   C4        1.0  0.6324290734093566  0.039617888997688824  0.6796866872459967  1.0000
  C   C5        1.0  0.5706714671364983  0.13430564075369422  0.6520097975312521  1.0000
  C   C6        1.0  0.47757621100754344  0.1167992889607008  0.657218599168123  1.0000
  C   C7        1.0  0.4238572602116678  0.2241397844276512  0.6256783410643513  1.0000
  C   C8        1.0  0.3356472682260483  0.20978499303519138  0.6299565943446144  1.0000
  C   C9        1.0  0.28123258216082386  0.32024861892556644  0.5974904095054634  1.0000
  N   N2        1.0  0.23749606605150148  0.409047122867898  0.5713904980398397  1.0000
  C   C10       1.0  0.3004749005838204  0.08792994416139632  0.6658240809024403  1.0000
  C   C11       1.0  0.35326297231386933  0.9808113705532532  0.6973034875763199  1.0000
  C   C12       1.0  0.4412872059201535  0.9947718132668847  0.6931414928604973  1.0000
  O   O1        1.0  0.6071572174650393  0.2465229705042069  0.6191116249379967  1.0000
  H   H1        1.0  0.7716246702220558  0.05847621647812074  0.6740408556935849  1.0000
  H   H2        1.0  0.6236721048076843  0.937668504406742  0.7095457869742741  1.0000
  H   H3        1.0  0.45048583718336715  0.31896462085768684  0.5977623550233503  1.0000
  H   H4        1.0  0.23235564045604623  0.075772182598288  0.6694454164898556  1.0000
  H   H5        1.0  0.32590423755943126  0.8866348057615087  0.725029049051427  1.0000
  H   H6        1.0  0.48035296670086697  0.9099263562938127  0.7180836498673211  1.0000
  C   C13       1.0  0.017859069362650127  0.02997478041895407  0.570686490819579  1.0000
  C   C14       1.0  0.945436360222301  0.0355014154588973  0.49094692711710847  1.0000
  C   C15       1.0  0.9098004607988891  0.9212889056077064  0.4507891100106539  1.0000
  C   C16       1.0  0.9457088995643639  0.8003660998298854  0.49089374393830276  1.0000
  C   C17       1.0  0.018019582780440788  0.7925200315919015  0.5707785516090358  1.0000
  C   C18       1.0  0.05376537569276941  0.907981043392759  0.6101757998956756  1.0000
  S   S1        1.0  0.8178727396224301  0.9297854365515438  0.3479007604198061  1.0000
  C   C19       1.0  0.8801893870264754  0.9377085798577817  0.20166510222340234  1.0000
  O   O2        1.0  0.9006268039632767  0.8322528450241478  0.15537618261658867  1.0000
  C   C20       1.0  0.9081437218883722  0.06361839500282263  0.13625112907467196  1.0000
  C   C21       1.0  0.9680655513497837  0.06539363052591218  0.03492429578590972  1.0000
  C   C22       1.0  0.9953067469731779  0.18347919840044646  0.9732826783714622  1.0000
  C   C23       1.0  0.9630846648445605  0.3010254018383518  0.011687092837553427  1.0000
  C   C24       1.0  0.9034178621451118  0.3007206923284995  0.11166163408904595  1.0000
  C   C25       1.0  0.8758941950007176  0.18294147996169724  0.17362257478705698  1.0000
  H   H7        1.0  0.1542692381267079  0.2268626710605308  0.7211546892456046  1.0000
  H   H8        1.0  0.9166139492959605  0.1283246450926656  0.4595835820718461  1.0000
  H   H9        1.0  0.917159534858642  0.7129132356060736  0.45904268631474054  1.0000
  H   H10       1.0  0.10959854745550118  0.9028000802555067  0.6716463604756857  1.0000
  H   H11       1.0  0.04565990578955146  0.4622210687066503  0.6008290852906031  1.0000
  H   H12       1.0  0.9942810223806388  0.9755775068768104  0.003705520005891302  1.0000
  H   H13       1.0  0.04153872951286087  0.18379734379043788  0.8957237285015367  1.0000
  H   H14       1.0  0.9842710065876568  0.392334922945108  0.9638761754709495  1.0000
  H   H15       1.0  0.8783131346797263  0.39190920530319756  0.14112308855248923  1.0000
  H   H16       1.0  0.8291660404593078  0.18601644986917049  0.25004767134752126  1.0000
  C   C26       1.0  0.0179976682896923  0.41138730782828326  0.18935671849161603  1.0000
  C   C27       1.0  0.10449916955625264  0.44288529896872597  0.18580806093625024  1.0000
  C   C28       1.0  0.14832349690199453  0.45686674669297317  0.06733758203497774  1.0000
  C   C29       1.0  0.10435083951929514  0.44257678972504233  0.950664278836629  1.0000
  C   C30       1.0  0.017880979970009484  0.41110747812948256  0.9521082884039764  1.0000
  C   C31       1.0  0.975264839915184  0.3952452517327818  0.0720245579900689  1.0000
  N   N3        1.0  0.23656387135247703  0.49105763291665  0.06712491433709888  1.0000
  C   C32       1.0  0.29652357566503995  0.45061488475239053  0.973088349923313  1.0000
  O   O3        1.0  0.28104870484118427  0.3522356840366559  0.9114782319701122  1.0000
  C   C33       1.0  0.37788972423929335  0.5201095164246532  0.9509922756702789  1.0000
  C   C34       1.0  0.38813884632863016  0.6480461870187306  0.987392437179241  1.0000
  C   C35       1.0  0.4650205179998763  0.7128138329675276  0.9654420804773495  1.0000
  C   C36       1.0  0.5322694106974932  0.6511259569956146  0.9066631743952382  1.0000
  C   C37       1.0  0.5227081423892703  0.5246284147484948  0.8692592975373276  1.0000
  C   C38       1.0  0.4459708435919818  0.4594023958867406  0.8908809562662938  1.0000
  H   H17       1.0  0.8546318807062455  0.3531793742519806  0.40322064050696516  1.0000
  H   H18       1.0  0.13844996193842862  0.4557603022210219  0.2753326358280721  1.0000
  H   H19       1.0  0.13717244486135538  0.4582072288798533  0.8586521940922361  1.0000
  H   H20       1.0  0.9085846069884042  0.37094687608281207  0.07389606687043558  1.0000
  H   H21       1.0  0.25969822586947144  0.5380178026367397  0.14612309233412102  1.0000
  H   H22       1.0  0.336665466059888  0.6990863325739902  0.031016782185684377  1.0000
  H   H23       1.0  0.4723302285008222  0.8111964122474508  0.993591848237028  1.0000
  H   H24       1.0  0.591692105440111  0.701495050665586  0.8897313766538976  1.0000
  H   H25       1.0  0.5748085456863645  0.47699846464001405  0.8234402771092046  1.0000
  H   H26       1.0  0.44011309246359676  0.3612278007685504  0.8613605662342785  1.0000
  Zn  Zn1       1.0  0.925095476070939  0.41218145757786817  0.5704537796711204  1.0000
  Zn  Zn2       1.0  0.1107750339876436  0.4103128006714811  0.5710106136442283  1.0000
  C   C39       1.0  0.01790003596451471  0.40598796311929974  0.8079312855157271  1.0000
  C   C40       1.0  0.017972502034341517  0.4165079129048892  0.33353324154670116  1.0000
  C   C41       1.0  0.017985649247903135  0.6483846806479208  0.565585849749421  1.0000
  C   C42       1.0  0.017886825052602535  0.17410963605948648  0.5758787461746053  1.0000
  O   O4        1.0  0.08842847936927062  0.4175116248035497  0.38213151465997264  1.0000
  O   O5        1.0  0.08837054660691374  0.40356500451567245  0.7597552625327932  1.0000
  O   O6        1.0  0.08843873031519583  0.5993034285091507  0.5640596058315983  1.0000
  O   O7        1.0  0.0883602323179879  0.22177321077143763  0.5778270737958562  1.0000
  O   O8        1.0  0.947510214377276  0.6007210481170084  0.5636373193226415  1.0000
  O   O9        1.0  0.9474420310040251  0.4049841840794088  0.7593329069653877  1.0000
  O   O10       1.0  0.9474999640521383  0.41893075969439675  0.3817075976584443  1.0000
  O   O11       1.0  0.9474317169805373  0.22319233634001523  0.5774032541627889  1.0000
