data_image0
_chemical_formula_structural       NC5NC3BrH3C7NH5C6H6Zn2C4O8
_chemical_formula_sum              "N3 C25 Br1 H14 Zn2 O8"
_cell_length_a       13.839083392302014
_cell_length_b       9.275154477615127
_cell_length_c       10.681121600428288
_cell_angle_alpha    85.78691594316618
_cell_angle_beta     90.00087308194136
_cell_angle_gamma    89.45968127068964

_space_group_name_H-M_alt    "P 1"
_space_group_IT_number       1

loop_
  _space_group_symop_operation_xyz
  'x, y, z'

loop_
  _atom_site_type_symbol
  _atom_site_label
  _atom_site_symmetry_multiplicity
  _atom_site_fract_x
  _atom_site_fract_y
  _atom_site_fract_z
  _atom_site_occupancy
  N   N1        1.0  0.8994453963357347  0.5784976459727763  0.624081630861985  1.0000
  C   C1        1.0  0.8278642250150443  0.5148647534352959  0.6260033972217298  1.0000
  C   C2        1.0  0.7386792615549501  0.43568343409679877  0.6283946020099984  1.0000
  C   C3        1.0  0.6506181883964163  0.5118730553673485  0.6260939125371441  1.0000
  C   C4        1.0  0.5630663399510335  0.4371559563201708  0.6283500843070571  1.0000
  C   C5        1.0  0.4727872749468112  0.5156966533641434  0.6259782599192838  1.0000
  N   N2        1.0  0.4002145949655521  0.5788372164812803  0.6240713278600865  1.0000
  C   C6        1.0  0.5635117944273869  0.28593777555964595  0.6329163923825283  1.0000
  C   C7        1.0  0.6511286247330154  0.20962690312087306  0.6352206639177331  1.0000
  C   C8        1.0  0.7388812297939281  0.2836299749916502  0.6329860710242563  1.0000
  Br  Br1       1.0  0.8570131090910975  0.17355459178797328  0.6363100745957273  1.0000
  H   H1        1.0  0.6502179084150749  0.6290543473132997  0.6225552369923102  1.0000
  H   H2        1.0  0.49620700361029857  0.22709317977730728  0.6346930794489132  1.0000
  H   H3        1.0  0.6507640575306367  0.09269478368401242  0.6387514874041582  1.0000
  C   C9        1.0  0.15263078827342835  0.15528002099456062  0.6226273076620181  1.0000
  C   C10       1.0  0.1261077688436163  0.238441113426636  0.5122139061418123  1.0000
  C   C11       1.0  0.09172515622710709  0.17237936740309956  0.407649457249889  1.0000
  C   C12       1.0  0.0832994376833156  0.02225312988297778  0.41226694006813475  1.0000
  C   C13       1.0  0.11071802763493332  0.9378849694697879  0.520163525241867  1.0000
  C   C14       1.0  0.14703852568766318  0.0020437474592343023  0.6255365036833509  1.0000
  C   C15       1.0  0.06391659607675115  0.25912140038616993  0.29590530614121446  1.0000
  N   N3        1.0  0.04156622732736803  0.32884609409669263  0.20609163164462485  1.0000
  H   H4        1.0  0.17136648165264545  0.23196380578574272  0.9300176534382636  1.0000
  H   H5        1.0  0.13005395866170333  0.35540318917536573  0.508498136310928  1.0000
  H   H6        1.0  0.05635936986942469  0.9701082813420815  0.3319026044923006  1.0000
  H   H7        1.0  0.10564404254071946  0.8214139329891971  0.5200534213831138  1.0000
  H   H8        1.0  0.16375422978511758  0.7032848519247645  0.8314966935489064  1.0000
  C   C16       1.0  0.1498346758294562  0.5786618531596126  0.2563366586932736  1.0000
  C   C17       1.0  0.08120244442805347  0.49842904706877444  0.19464009793467582  1.0000
  C   C18       1.0  0.08120238348830999  0.49842913947537865  0.06375795830063447  1.0000
  C   C19       1.0  0.14983459940094512  0.5786619237834745  0.9918270946139893  1.0000
  C   C20       1.0  0.21841018550540925  0.658828241061951  0.05352284789698403  1.0000
  C   C21       1.0  0.21841017329037268  0.6588282186969239  0.1844151464834738  1.0000
  H   H9        1.0  0.21924004986674417  0.6597992651599673  0.5498715643488479  1.0000
  H   H10       1.0  0.027405261451892485  0.4355387816851244  0.24746210155544635  1.0000
  H   H11       1.0  0.02740524082315399  0.4355388495379695  0.01895807256349125  1.0000
  H   H12       1.0  0.2722143932211045  0.7217267937198046  0.000745207954458093  1.0000
  H   H13       1.0  0.27221434487031115  0.7217267431447041  0.22916957526621862  1.0000
  H   H14       1.0  0.21924035476124892  0.6597987630460693  0.6879425369034524  1.0000
  Zn  Zn1       1.0  0.04395659833109633  0.5785917731112027  0.6240858816924859  1.0000
  Zn  Zn2       1.0  0.2557034631558477  0.5787312719769142  0.6240773136002986  1.0000
  C   C22       1.0  0.14987041702369286  0.5729181784835224  0.852783936230844  1.0000
  C   C23       1.0  0.14979194471817858  0.5844066872873948  0.3953793881312688  1.0000
  C   C24       1.0  0.1480906048052273  0.8419873557268494  0.6199962744723542  1.0000
  C   C25       1.0  0.1515716961222655  0.31533577778281696  0.6281671107066658  1.0000
  O   O1        1.0  0.23013447698063638  0.5863813552112416  0.44204012514536317  1.0000
  O   O2        1.0  0.2302388628575609  0.5710482993045443  0.8061163320051349  1.0000
  O   O3        1.0  0.22880055873374916  0.7883250620591369  0.6181386533181175  1.0000
  O   O4        1.0  0.23157270878147693  0.3691046027228433  0.6300177099745976  1.0000
  O   O5        1.0  0.06808728044664435  0.7882184423192393  0.6181454853145292  1.0000
  O   O6        1.0  0.06952557312601093  0.5709434117798629  0.8061231031809817  1.0000
  O   O7        1.0  0.06942118764525378  0.5862764174443451  0.44204539052600994  1.0000
  O   O8        1.0  0.07085941951024212  0.368999654643718  0.6300230692093702  1.0000
