data_image0
_chemical_formula_structural       NC5NC3OH4C9H10C7OH5Zn2C4O8
_chemical_formula_sum              "N2 C28 O10 H19 Zn2"
_cell_length_a       13.84702359539666
_cell_length_b       10.297183801781406
_cell_length_c       9.274074313596557
_cell_angle_alpha    86.09469829957582
_cell_angle_beta     90.21930263959183
_cell_angle_gamma    89.99848952151973

_space_group_name_H-M_alt    "P 1"
_space_group_IT_number       1

loop_
  _space_group_symop_operation_xyz
  'x, y, z'

loop_
  _atom_site_type_symbol
  _atom_site_label
  _atom_site_symmetry_multiplicity
  _atom_site_fract_x
  _atom_site_fract_y
  _atom_site_fract_z
  _atom_site_occupancy
  N   N1        1.0  0.9049896633021944  0.40766280395589  0.4091551272613352  1.0000
  C   C1        1.0  0.8330179164052689  0.40041086219313327  0.47221033547067987  1.0000
  C   C2        1.0  0.7433860821837298  0.3913806627240987  0.550727355620036  1.0000
  C   C3        1.0  0.6555946198845808  0.400104402439188  0.47487427801462245  1.0000
  C   C4        1.0  0.5679381273276773  0.3914820184335164  0.5498456502641307  1.0000
  C   C5        1.0  0.4778736315584697  0.40046379303775637  0.47174979487536084  1.0000
  N   N2        1.0  0.4054734233966619  0.40768445227412736  0.4089669531512432  1.0000
  C   C6        1.0  0.5680683606829041  0.37410986575801686  0.7008954590437416  1.0000
  C   C7        1.0  0.6554797803075944  0.3653779704758462  0.7768165627333712  1.0000
  C   C8        1.0  0.7434530266500191  0.3739448001470827  0.7023298350568614  1.0000
  O   O1        1.0  0.8305851737115384  0.36519801403706004  0.7783823318533383  1.0000
  H   H1        1.0  0.6554983065162548  0.4135629578312851  0.35785388347368063  1.0000
  H   H2        1.0  0.5006749115338519  0.36732358764738415  0.7599013791136164  1.0000
  H   H3        1.0  0.6547971074509439  0.3519461159838411  0.893605564895069  1.0000
  H   H4        1.0  0.8324159983239877  0.3526270402289115  0.8876851323218342  1.0000
  C   C9        1.0  0.15524009362208235  0.026199870020201514  0.4092652354350985  1.0000
  C   C10       1.0  0.15201047612834784  0.034719000929070765  0.2576017410573044  1.0000
  C   C11       1.0  0.15035562526530533  0.9224671134174364  0.17990009786168515  1.0000
  C   C12       1.0  0.15199755671676132  0.7995427111352781  0.2570139159616678  1.0000
  C   C13       1.0  0.15523226644290267  0.7891374956642757  0.4088692421184447  1.0000
  C   C14       1.0  0.15683150262335754  0.9029334395703118  0.48400362533717783  1.0000
  C   C15       1.0  0.1468622987019137  0.941113349841362  0.015865319604114966  1.0000
  C   C16       1.0  0.0900954573349011  0.8416847357564912  0.935655150874156  1.0000
  C   C17       1.0  0.2001043379954197  0.841957231203702  0.9310352451391122  1.0000
  H   H5        1.0  0.15649373871838446  0.35045563001361724  0.4677060410024878  1.0000
  H   H6        1.0  0.15076386838781586  0.12943022082460942  0.1990512646374718  1.0000
  H   H7        1.0  0.15078322414009526  0.7114397375841792  0.20008937582444086  1.0000
  H   H8        1.0  0.15932273630220917  0.8956333082920479  0.6010151962563666  1.0000
  H   H9        1.0  0.1613288938231239  0.5622685230222003  0.6956811990548716  1.0000
  H   H10       1.0  0.14574036874538354  0.04136278597424003  0.9631416578988556  1.0000
  H   H11       1.0  0.058049132557026706  0.7586256572111383  0.0012574222019163753  1.0000
  H   H12       1.0  0.05574666412512785  0.8816547905122957  0.8336960162040872  1.0000
  H   H13       1.0  0.23488250277553235  0.7590644853744405  0.9938319242156538  1.0000
  H   H14       1.0  0.23005089062095535  0.8820841684730625  0.8263746490714934  1.0000
  C   C18       1.0  0.15407990549315834  0.40392720851863184  0.9858284530403769  1.0000
  C   C19       1.0  0.06987693250362703  0.44227509428176814  0.055729066223188184  1.0000
  C   C20       1.0  0.9904293880417349  0.49106307846027186  0.9765513881040575  1.0000
  C   C21       1.0  0.9933263898903705  0.5028008819703866  0.8252642050929446  1.0000
  C   C22       1.0  0.07622545827448746  0.4628846058486445  0.754225010287934  1.0000
  C   C23       1.0  0.15639240495338824  0.4114101137597527  0.8323061057652068  1.0000
  C   C24       1.0  0.9102553674565265  0.5551610609943465  0.7398775600402603  1.0000
  O   O2        1.0  0.8345780995824906  0.5913523206435503  0.8005935108999829  1.0000
  H   H15       1.0  0.39004259116106454  0.3708409484252855  0.09254546529219843  1.0000
  H   H16       1.0  0.9270649350298666  0.5207983351884411  0.033961435345944306  1.0000
  H   H17       1.0  0.077344432695031  0.46917999477832506  0.6370646592011378  1.0000
  H   H18       1.0  0.3150035690138558  0.38441732292927605  0.5547946473584582  1.0000
  H   H19       1.0  0.9136845391240396  0.5630462484334233  0.6230026607550627  1.0000
  Zn  Zn1       1.0  0.049418486434428914  0.40766564702327096  0.4091091366111006  1.0000
  Zn  Zn2       1.0  0.2610446084475464  0.40767108394311347  0.4090247117226333  1.0000
  C   C25       1.0  0.15595321701951548  0.404820614972045  0.6723063486225895  1.0000
  C   C26       1.0  0.15451218918274343  0.4105177563744946  0.14582763939934115  1.0000
  C   C27       1.0  0.15521307101510473  0.6448752692367408  0.40320077360554046  1.0000
  C   C28       1.0  0.15525226319992025  0.1704615420555049  0.4149332920954456  1.0000
  O   O3        1.0  0.23496827800136916  0.4127260004233844  0.19949279208815862  1.0000
  O   O4        1.0  0.2361164569903238  0.4026155137598884  0.6185767050155035  1.0000
  O   O5        1.0  0.2355177011947005  0.5964626962043711  0.40127204895352486  1.0000
  O   O6        1.0  0.23556696128800803  0.21887882631451627  0.41679734010884517  1.0000
  O   O7        1.0  0.07489606137633742  0.5964579046513598  0.4013365082461171  1.0000
  O   O8        1.0  0.07549481694156457  0.40261228226066315  0.6186410866502687  1.0000
  O   O9        1.0  0.07434663328331959  0.41272270833741115  0.1995554409220117  1.0000
  O   O10       1.0  0.07494531686131278  0.21887552589242043  0.416860097005219  1.0000
