data_image0
_chemical_formula_structural       NC5NC3OH4C6NH7C6OCH6Zn2C4O8
_chemical_formula_sum              "N3 C25 O10 H17 Zn2"
_cell_length_a       13.84702359539666
_cell_length_b       9.274771166103582
_cell_length_c       9.273891588657152
_cell_angle_alpha    85.97469330815719
_cell_angle_beta     89.66582561404928
_cell_angle_gamma    90.59789355945463

_space_group_name_H-M_alt    "P 1"
_space_group_IT_number       1

loop_
  _space_group_symop_operation_xyz
  'x, y, z'

loop_
  _atom_site_type_symbol
  _atom_site_label
  _atom_site_symmetry_multiplicity
  _atom_site_fract_x
  _atom_site_fract_y
  _atom_site_fract_z
  _atom_site_occupancy
  N   N1        1.0  0.9262521965762394  0.5643291639511174  0.4068710062278038  1.0000
  C   C1        1.0  0.853815664381127  0.5562267761230063  0.4699426220741055  1.0000
  C   C2        1.0  0.7636050745007407  0.5461375916729292  0.5484800731946726  1.0000
  C   C3        1.0  0.6763727310803859  0.5558843779335545  0.472607257928452  1.0000
  C   C4        1.0  0.5881636183906175  0.5462508338525889  0.5475981384840005  1.0000
  C   C5        1.0  0.4986747739405716  0.5562859144919079  0.46948196169566164  1.0000
  N   N2        1.0  0.4267373437688823  0.5643533509552079  0.4066827831428371  1.0000
  C   C6        1.0  0.5871804507335137  0.5268414228612002  0.6986872520400798  1.0000
  C   C7        1.0  0.6740322474687657  0.5170855268979182  0.7746281115984948  1.0000
  C   C8        1.0  0.7625545430231693  0.5266570004382254  0.7001220014441194  1.0000
  O   O1        1.0  0.8491261004033367  0.5168844658620357  0.7761942879623809  1.0000
  H   H1        1.0  0.6771389858400033  0.5709212375069852  0.355556413266398  1.0000
  H   H2        1.0  0.5193520636019128  0.5192593080510095  0.7577085261439784  1.0000
  H   H3        1.0  0.6724887127869655  0.5020784988705072  0.8914475035352455  1.0000
  H   H4        1.0  0.8501512438183113  0.5028392759916223  0.8855255303736137  1.0000
  C   C9        1.0  0.17353160645694188  0.14075164998241818  0.4075636326595209  1.0000
  C   C10       1.0  0.15178268007117618  0.22289598144673128  0.27867580554562693  1.0000
  C   C11       1.0  0.13905339367144864  0.15667523049545307  0.14896679630224052  1.0000
  C   C12       1.0  0.14812711481055207  0.006924197836549297  0.14720606467589836  1.0000
  C   C13       1.0  0.1680967529569335  0.9234443710238924  0.2743239067953689  1.0000
  C   C14       1.0  0.17946704739292807  0.9879199066398506  0.4060026301940768  1.0000
  N   N3        1.0  0.1179030103002916  0.24190630275709868  0.018662102221962632  1.0000
  H   H5        1.0  0.28105694729752884  0.2232642830661804  0.7229713730052885  1.0000
  H   H6        1.0  0.14691539534521936  0.33948345711678507  0.27812396501821324  1.0000
  H   H7        1.0  0.1387902878749856  0.9545357498529707  0.04740789650465937  1.0000
  H   H8        1.0  0.17236788882075071  0.8072433040466134  0.27019428129951395  1.0000
  H   H9        1.0  0.24796761224856367  0.692793955090778  0.6205933202332113  1.0000
  H   H10       1.0  0.1112494364510024  0.35397945996568403  0.01861778956965043  1.0000
  H   H11       1.0  0.10864838807681232  0.1935564609338314  0.9212343117820225  1.0000
  C   C15       1.0  0.1780546242799153  0.5605155728515028  0.9835142285758064  1.0000
  C   C16       1.0  0.25756825041432974  0.6214456830112441  0.05194591550987848  1.0000
  C   C17       1.0  0.3316794682778341  0.6931467002463756  0.9719763694451954  1.0000
  C   C18       1.0  0.32654280948802494  0.7042790657573044  0.8205172045719467  1.0000
  C   C19       1.0  0.2490519659940773  0.6424756436168679  0.7507441659874927  1.0000
  C   C20       1.0  0.17494399316056963  0.5681558928295631  0.8300519807167079  1.0000
  O   O2        1.0  0.40854328733133904  0.7523006823707601  0.047045228677336626  1.0000
  C   C21       1.0  0.4886005074893085  0.8282184950606695  0.9797990622595667  1.0000
  H   H12       1.0  0.9477275748855182  0.47190932757363124  0.09478111873839912  1.0000
  H   H13       1.0  0.3825597714468732  0.7593634153924356  0.755472647610639  1.0000
  H   H14       1.0  0.021302387545101276  0.5027828902010683  0.5547873966175382  1.0000
  H   H15       1.0  0.4633613178778376  0.9258298922585568  0.9152333688635973  1.0000
  H   H16       1.0  0.5283658151199626  0.7566312527132335  0.9095031624055032  1.0000
  H   H17       1.0  0.538276862753222  0.8626994645637113  0.06456048102439162  1.0000
  Zn  Zn1       1.0  0.07068133966113277  0.5643323572326195  0.4068250073458928  1.0000
  Zn  Zn2       1.0  0.28230805070709986  0.564338461097248  0.4067405670138067  1.0000
  C   C22       1.0  0.17548957026891765  0.5609653032034707  0.670048826833431  1.0000
  C   C23       1.0  0.1775021432880599  0.5677073364984058  0.14351688472135615  1.0000
  C   C24       1.0  0.17836124565408662  0.827735201887152  0.40055391612284186  1.0000
  C   C25       1.0  0.17463038326509017  0.30093570546504234  0.41301187549983587  1.0000
  O   O3        1.0  0.2576279154703913  0.5701169814741684  0.197183204695915  1.0000
  O   O4        1.0  0.25598356896228625  0.558559198988895  0.61631800568629  1.0000
  O   O5        1.0  0.2583013950121107  0.773979279437391  0.3986989562345695  1.0000
  O   O6        1.0  0.25531001767611566  0.354696910366912  0.4148021460844755  1.0000
  O   O7        1.0  0.09767930047434613  0.7739739079623746  0.3987634282964548  1.0000
  O   O8        1.0  0.0953614868445507  0.5585555598629801  0.6163823977015157  1.0000
  O   O9        1.0  0.09700583943243868  0.5701132764414676  0.19724586385617537  1.0000
  O   O10       1.0  0.09468794116484294  0.35469319599239024  0.4148649133291269  1.0000
