data_image0
_chemical_formula_structural       NC9NC3OH6C7H7C6H4Zn2C4O8
_chemical_formula_sum              "N2 C29 O9 H17 Zn2"
_cell_length_a       15.78231758774541
_cell_length_b       9.274341958901593
_cell_length_c       10.68112160042829
_cell_angle_alpha    85.52848388196087
_cell_angle_beta     90.08384876913414
_cell_angle_gamma    89.0114341261544

_space_group_name_H-M_alt    "P 1"
_space_group_IT_number       1

loop_
  _space_group_symop_operation_xyz
  'x, y, z'

loop_
  _atom_site_type_symbol
  _atom_site_label
  _atom_site_symmetry_multiplicity
  _atom_site_fract_x
  _atom_site_fract_y
  _atom_site_fract_z
  _atom_site_occupancy
  N   N1        1.0  0.7878749441267502  0.5697921451432424  0.6202013634009335  1.0000
  C   C1        1.0  0.7399235720217299  0.47864003997230453  0.6434674484863603  1.0000
  C   C2        1.0  0.6803899914432986  0.3654981209333777  0.6723466532580845  1.0000
  C   C3        1.0  0.7009579541493522  0.2233736380897371  0.7085470154503491  1.0000
  C   C4        1.0  0.6246661546998408  0.15449455011407887  0.726163015881907  1.0000
  C   C5        1.0  0.5622154206530953  0.25968293342303594  0.6994104102928416  1.0000
  C   C6        1.0  0.4692483272934804  0.24023520901314677  0.7044450460967089  1.0000
  C   C7        1.0  0.4147436040433337  0.35947942595952886  0.6739584783177829  1.0000
  C   C8        1.0  0.32663870355131347  0.3435327581918124  0.678093663859366  1.0000
  C   C9        1.0  0.27141538131319043  0.4662464474874199  0.646712121747994  1.0000
  N   N2        1.0  0.2270288258521568  0.5648924214620401  0.6214841691156863  1.0000
  C   C10       1.0  0.2923583696798383  0.2081643951893617  0.7127627514614471  1.0000
  C   C11       1.0  0.3459305899681991  0.08916671230999772  0.7431904905582778  1.0000
  C   C12       1.0  0.43385261891822435  0.10467529953473442  0.7391676787397687  1.0000
  O   O1        1.0  0.5978797095637777  0.3843448407499113  0.6676111178255976  1.0000
  H   H1        1.0  0.7637236857990882  0.17544416382660288  0.7207060431570692  1.0000
  H   H2        1.0  0.6166554790213336  0.04123926162273972  0.7550248155278199  1.0000
  H   H3        1.0  0.4406780198485536  0.4648200151565938  0.6469752279128305  1.0000
  H   H4        1.0  0.22432811626121987  0.1946583962817956  0.7162629919722548  1.0000
  H   H5        1.0  0.31926127079905103  0.9845462860499871  0.7699896779224502  1.0000
  H   H6        1.0  0.47353948184147465  0.010420754479112605  0.7632765461032132  1.0000
  C   C13       1.0  0.010149933439701053  0.1437364649378845  0.6210651787137274  1.0000
  C   C14       1.0  0.020166608346398256  0.22696957409750107  0.506431117483763  1.0000
  C   C15       1.0  0.021752900574125697  0.1619976628147417  0.3929880628993143  1.0000
  C   C16       1.0  0.01243063231020968  0.012471400949218834  0.3914484305963759  1.0000
  C   C17       1.0  0.005053615265690366  0.9276009631539618  0.5051635666625267  1.0000
  C   C18       1.0  0.0047619721865048694  0.9909369152931052  0.6206312254712223  1.0000
  C   C19       1.0  0.016010789486533557  0.942440002427313  0.26954502448609574  1.0000
  H   H7        1.0  0.9396410037841687  0.2226808950424268  0.9109981424856013  1.0000
  H   H8        1.0  0.02496906075419703  0.3435237264586686  0.5042926393358189  1.0000
  H   H9        1.0  0.029358458265271718  0.22878907663499026  0.30606829057998314  1.0000
  H   H10       1.0  0.960661611426521  0.6938351930335158  0.817480131080392  1.0000
  H   H11       1.0  0.08264908976935563  0.9121495293775047  0.2492261656236216  1.0000
  H   H12       1.0  0.9913005991652539  0.017532964024588923  0.19132182521012542  1.0000
  H   H13       1.0  0.9769162035356007  0.8437041719424159  0.27443996663302683  1.0000
  C   C20       1.0  0.007455981541488965  0.567336678781595  0.2531029595633092  1.0000
  C   C21       1.0  0.9473141653821101  0.4877861104603307  0.19154439672514087  1.0000
  C   C22       1.0  0.9473141118876626  0.48778620354580715  0.06066225657032365  1.0000
  C   C23       1.0  0.007455914476471202  0.5673367502366529  0.9885933950088432  1.0000
  C   C24       1.0  0.06754809301782982  0.6468213927071862  0.05015126532495117  1.0000
  C   C25       1.0  0.06754808231852061  0.646821370459971  0.18104356396778587  1.0000
  H   H14       1.0  0.900172170692294  0.42543061524575454  0.2444745696475732  1.0000
  H   H15       1.0  0.9001721525629723  0.4254306833447421  0.015970540335562108  1.0000
  H   H16       1.0  0.11469624338169865  0.7091851054002192  0.997265441660687  1.0000
  H   H17       1.0  0.11469620100892847  0.7091850553084065  0.22568980904628289  1.0000
  Zn  Zn1       1.0  0.9146052890062613  0.5683743375607861  0.6205787811704122  1.0000
  Zn  Zn2       1.0  0.10029852735458933  0.566298455676165  0.621116994448268  1.0000
  C   C26       1.0  0.007490606436099772  0.5615900644277487  0.8495729082606178  1.0000
  C   C27       1.0  0.007415226113856257  0.573084526238443  0.3921229952159328  1.0000
  C   C28       1.0  0.005776066216154121  0.8307980578665889  0.6157229167995183  1.0000
  C   C29       1.0  0.009129713991718136  0.3038748004008247  0.6259730541463806  1.0000
  O   O2        1.0  0.07787120444781646  0.5742194767694586  0.4389836415024228  1.0000
  O   O3        1.0  0.07797150628028099  0.5588784793514986  0.8031203934649742  1.0000
  O   O4        1.0  0.07658604340515389  0.7762673492729206  0.6142848673108974  1.0000
  O   O5        1.0  0.07925660389279815  0.3568306178755096  0.6278190735714166  1.0000
  O   O6        1.0  0.9356471491000535  0.7778421760714083  0.61387670185701  1.0000
  O   O7        1.0  0.9370326009492657  0.5604550392587313  0.8027121603514848  1.0000
  O   O8        1.0  0.936932299492927  0.5757959864078879  0.43857390279226255  1.0000
  O   O9        1.0  0.9383176990000548  0.3584071171964329  0.627409428756086  1.0000
