data_image0
_chemical_formula_structural       NC9NC3OH6C8NH6C8H6Zn2C4O8
_chemical_formula_sum              "N3 C32 O9 H18 Zn2"
_cell_length_a       15.78231758774541
_cell_length_b       9.27426342843186
_cell_length_c       9.275144076552241
_cell_angle_alpha    85.91390011552684
_cell_angle_beta     90.54614249944106
_cell_angle_gamma    90.24871893605766

_space_group_name_H-M_alt    "P 1"
_space_group_IT_number       1

loop_
  _space_group_symop_operation_xyz
  'x, y, z'

loop_
  _atom_site_type_symbol
  _atom_site_label
  _atom_site_symmetry_multiplicity
  _atom_site_fract_x
  _atom_site_fract_y
  _atom_site_fract_z
  _atom_site_occupancy
  N   N1        1.0  0.8002350656652849  0.5586068289928077  0.41164083378180916  1.0000
  C   C1        1.0  0.7512545532371603  0.46765135160644405  0.43842996076852603  1.0000
  C   C2        1.0  0.6904435612132478  0.35475349813396573  0.4716821679216443  1.0000
  C   C3        1.0  0.7094064698423892  0.21293499103985522  0.5133641600961476  1.0000
  C   C4        1.0  0.6323371921423254  0.14420476350477496  0.5336476310767969  1.0000
  C   C5        1.0  0.5710745998556642  0.24916700680710635  0.502844004238574  1.0000
  C   C6        1.0  0.47788832196197667  0.2297617970690873  0.5086409773434695  1.0000
  C   C7        1.0  0.4247296346059408  0.3487483883915299  0.4735380329853327  1.0000
  C   C8        1.0  0.33644504587432134  0.3328366366355986  0.4782993597644643  1.0000
  C   C9        1.0  0.2826068795844479  0.45528514121666586  0.442165924142929  1.0000
  N   N2        1.0  0.2393338039954661  0.5537179310048896  0.41311787468081085  1.0000
  C   C10       1.0  0.3006369952161879  0.1977612143150833  0.5182181319490716  1.0000
  C   C11       1.0  0.352865985516424  0.07902065789203892  0.5532533379899771  1.0000
  C   C12       1.0  0.4409627596636032  0.09449527853463223  0.5486214007916466  1.0000
  O   O1        1.0  0.6081464764065827  0.3735601602643961  0.4662295304879833  1.0000
  H   H1        1.0  0.7716306510838241  0.16510831220836344  0.527364384029261  1.0000
  H   H2        1.0  0.6230475711839677  0.031193416000823156  0.5668798152529719  1.0000
  H   H3        1.0  0.4518528600176811  0.4538609815296353  0.4424689094482588  1.0000
  H   H4        1.0  0.2324545439847102  0.1842847711518556  0.5222483724043259  1.0000
  H   H5        1.0  0.32501598629766293  0.9746266722451699  0.5841105270320659  1.0000
  H   H6        1.0  0.4795857334182901  0.00044445910621448834  0.5763809080132924  1.0000
  C   C13       1.0  0.017108762581592444  0.13261086700926206  0.4126766601703178  1.0000
  C   C14       1.0  0.005531987468967879  0.2151819387792864  0.28090481606583784  1.0000
  C   C15       1.0  0.0022710981130242805  0.1493976771134784  0.15035341964243565  1.0000
  C   C16       1.0  0.011195068362543236  0.9995023045617281  0.14834702385301135  1.0000
  C   C17       1.0  0.020493788484183803  0.9154458391536948  0.2792276246996248  1.0000
  C   C18       1.0  0.022468186117237537  0.9797028549720185  0.412094549949088  1.0000
  C   C19       1.0  0.006415745874742248  0.9285881196191605  0.007692325950225285  1.0000
  C   C20       1.0  0.9183540374742986  0.8904091090351284  0.9753606220441262  1.0000
  N   N3        1.0  0.8488488540755651  0.8602739499862835  0.9498514295688799  1.0000
  H   H7        1.0  0.09180401760832302  0.2123606394371911  0.74524846968988  1.0000
  H   H8        1.0  0.9935742071451444  0.2157266227121362  0.05043247225278579  1.0000
  H   H9        1.0  0.024143180726248867  0.7989024192222849  0.2773412373984907  1.0000
  H   H10       1.0  0.06946990027021638  0.6832566295897572  0.637947361461001  1.0000
  H   H11       1.0  0.04558752056425397  0.8290755561249444  0.01340224519587752  1.0000
  H   H12       1.0  0.03101147087062837  0.002502471727349169  0.9180736210136274  1.0000
  C   C21       1.0  0.017774058715403603  0.5532275843906329  0.9890954093906363  1.0000
  C   C22       1.0  0.9631261658164079  0.6479066244355522  0.05481866950064451  1.0000
  C   C23       1.0  0.915322129612024  0.749656258889315  0.9716509970950846  1.0000
  C   C24       1.0  0.9213028450079536  0.7588072412453426  0.8212341054977945  1.0000
  C   C25       1.0  0.974191083256919  0.6640420137685683  0.7537491685461752  1.0000
  C   C26       1.0  0.02180288504669336  0.5590861318643428  0.8356758246047122  1.0000
  C   C27       1.0  0.8722932919054026  0.8645354486890289  0.7356896544735392  1.0000
  C   C28       1.0  0.8312626355914163  0.9530547860053707  0.6640527475697553  1.0000
  H   H13       1.0  0.19271493137592577  0.36192866995702766  0.10842204731659844  1.0000
  H   H14       1.0  0.958872699540236  0.6455292031756961  0.17147620329951074  1.0000
  H   H15       1.0  0.8742668847973698  0.8222354846968132  0.024900192654602415  1.0000
  H   H16       1.0  0.9766580831804752  0.6700083068091116  0.6366686097016561  1.0000
  H   H17       1.0  0.13772490276400567  0.42572572557459326  0.566345163036655  1.0000
  H   H18       1.0  0.7952462334230651  0.030755882700143296  0.601168938871274  1.0000
  Zn  Zn1       1.0  0.9269494880531262  0.5571922035213047  0.4120753956989474  1.0000
  Zn  Zn2       1.0  0.11261933471228919  0.5551208661584693  0.4126951041517324  1.0000
  C   C29       1.0  0.021003104780413336  0.5522327997749048  0.6756579044677995  1.0000
  C   C30       1.0  0.01856775768123708  0.5600820681296375  0.1491127423774108  1.0000
  C   C31       1.0  0.02142343951589608  0.8195447003012271  0.4064605068263085  1.0000
  C   C32       1.0  0.018147348991643487  0.2927684359568019  0.4183102178478545  1.0000
  O   O2        1.0  0.08929482967416202  0.5615901413346631  0.20305120155657508  1.0000
  O   O3        1.0  0.09119514143514373  0.5491515384794716  0.6221893754726004  1.0000
  O   O4        1.0  0.0915336243382261  0.7650092997434819  0.4048105680598917  1.0000
  O   O5        1.0  0.08895628296547792  0.34573239034733416  0.42042990067233166  1.0000
  O   O6        1.0  0.9506124764399044  0.7665806800408028  0.40434059895928964  1.0000
  O   O7        1.0  0.9502740041309004  0.5507246511316701  0.6217193283239864  1.0000
  O   O8        1.0  0.9483736838608632  0.5631631917316242  0.2025794214079295  1.0000
  O   O9        1.0  0.9480351375977479  0.34730543117597756  0.4199582286015798  1.0000
