data_image0
_chemical_formula_structural       NC9NC3OH6C6NH5C6SCH6Zn2C4O8
_chemical_formula_sum              "N3 C29 O9 H17 S1 Zn2"
_cell_length_a       15.78231758774541
_cell_length_b       9.274771166103584
_cell_length_c       10.302812801239591
_cell_angle_alpha    85.45577702643503
_cell_angle_beta     90.08384720459999
_cell_angle_gamma    90.23039320205511

_space_group_name_H-M_alt    "P 1"
_space_group_IT_number       1

loop_
  _space_group_symop_operation_xyz
  'x, y, z'

loop_
  _atom_site_type_symbol
  _atom_site_label
  _atom_site_symmetry_multiplicity
  _atom_site_fract_x
  _atom_site_fract_y
  _atom_site_fract_z
  _atom_site_occupancy
  N   N1        1.0  0.8074978567971625  0.5696504790938826  0.5677979402100906  1.0000
  C   C1        1.0  0.7584070547744267  0.47850660422335495  0.5920192873779317  1.0000
  C   C2        1.0  0.6974591647046294  0.3653749009877676  0.6220842169967893  1.0000
  C   C3        1.0  0.7162505267785999  0.22326325084512177  0.6597712289974933  1.0000
  C   C4        1.0  0.6390977171148243  0.15439038209331502  0.6781103577703298  1.0000
  C   C5        1.0  0.5779618708652394  0.2595692677318567  0.6502589227961357  1.0000
  C   C6        1.0  0.4847516748465826  0.24012329928942308  0.6554999645455677  1.0000
  C   C7        1.0  0.4317375417274447  0.35935674944788776  0.6237618926120461  1.0000
  C   C8        1.0  0.3434333028831328  0.3434115215308679  0.6280665796209102  1.0000
  C   C9        1.0  0.2897439402692623  0.46611413077387587  0.5953968282092739  1.0000
  N   N2        1.0  0.2465904904384446  0.5647511978158202  0.5691332759129064  1.0000
  C   C10       1.0  0.3074608219940223  0.20805538119173694  0.6641586074768295  1.0000
  C   C11       1.0  0.3595455339044972  0.08906844283994374  0.6958354175512114  1.0000
  C   C12       1.0  0.4476614250625493  0.10457562976908408  0.6916477157083643  1.0000
  O   O1        1.0  0.6151844727354241  0.38421991909177505  0.6171539239207424  1.0000
  H   H1        1.0  0.7784171249614085  0.17533810423281257  0.6724298079068634  1.0000
  H   H2        1.0  0.6296713147920845  0.04114531964514322  0.7081573687264722  1.0000
  H   H3        1.0  0.45898874795476624  0.46468782724597574  0.5956711752030983  1.0000
  H   H4        1.0  0.2392617393499572  0.19455060176304095  0.6678023317673742  1.0000
  H   H5        1.0  0.3315684265759486  0.9844574629540199  0.7237345156985253  1.0000
  H   H6        1.0  0.4861700765950461  0.010329595135365905  0.7167462273557792  1.0000
  C   C13       1.0  0.02444701842571927  0.14363327638424805  0.5691653494943345  1.0000
  C   C14       1.0  0.0049504223529341935  0.22715956531237744  0.453006165646737  1.0000
  C   C15       1.0  0.9933644266116595  0.16223945312792232  0.336134435105208  1.0000
  C   C16       1.0  0.0013194454027931595  0.012415083409716076  0.3345757658316588  1.0000
  C   C17       1.0  0.019249303358519713  0.9275868475699585  0.44913531201404616  1.0000
  C   C18       1.0  0.029649357418856555  0.9907572691136383  0.5677771468912549  1.0000
  N   N3        1.0  0.9743883858156901  0.24885943185072712  0.218700829211768  1.0000
  H   H7        1.0  0.11979956856107882  0.22222967686143888  0.8535874812459007  1.0000
  H   H8        1.0  0.9928061977493698  0.961022849340174  0.24465597989504606  1.0000
  H   H9        1.0  0.09043909280602946  0.6930126829834818  0.7612724820994303  1.0000
  H   H10       1.0  0.968550828466983  0.36099846669510316  0.21864090883793152  1.0000
  H   H11       1.0  0.9659549006700354  0.20148351553472918  0.1309163728374605  1.0000
  C   C19       1.0  0.02704820697091258  0.5671952620561183  0.18722277422711375  1.0000
  C   C20       1.0  0.9993580430252795  0.7113547807933869  0.17570287960621478  1.0000
  C   C21       1.0  0.9853605539143843  0.7828737005738824  0.05299504287674318  1.0000
  C   C22       1.0  0.9993579657127262  0.7113546302337763  0.9405517099328091  1.0000
  C   C23       1.0  0.02704815195481779  0.5671952529489648  0.9497196777054553  1.0000
  C   C24       1.0  0.04073174195660689  0.4958076598588916  0.07359349982724828  1.0000
  S   S1        1.0  0.950156939792597  0.9671636577554541  0.039771882762092314  1.0000
  C   C25       1.0  0.8383999870149067  0.9180122396945353  0.043027683462255606  1.0000
  H   H12       1.0  0.9883583554954053  0.7686153649665428  0.2616937839917477  1.0000
  H   H13       1.0  0.9883581845895777  0.7686151590823084  0.8463434708342902  1.0000
  H   H14       1.0  0.062074970050817385  0.3846016426371055  0.08157285520232294  1.0000
  H   H15       1.0  0.8229819125706656  0.8540133207826439  0.9594408255502116  1.0000
  H   H16       1.0  0.8229822843997473  0.8540147744390048  0.13567551629841423  1.0000
  H   H17       1.0  0.7997982353917112  0.018007466442970358  0.03580877739893107  1.0000
  Zn  Zn1       1.0  0.9342104786367024  0.5682327995268572  0.5681907866626423  1.0000
  Zn  Zn2       1.0  0.11987776780991494  0.5661571050770111  0.5687510617182787  1.0000
  C   C26       1.0  0.027010986284461184  0.5614491218922681  0.8056008601145962  1.0000
  C   C27       1.0  0.027079298819680398  0.5729425799785031  0.3313411188282738  1.0000
  C   C28       1.0  0.028661633538858745  0.8306328204203469  0.5628659739684889  1.0000
  C   C29       1.0  0.025428577567677472  0.3037571492080955  0.5740760768398445  1.0000
  O   O2        1.0  0.09754946351194177  0.5740774244917838  0.37992118358961147  1.0000
  O   O3        1.0  0.09745799134367905  0.5587377851907162  0.7574456592118273  1.0000
  O   O4        1.0  0.09878996004541535  0.7761070366633906  0.5614355159352109  1.0000
  O   O5        1.0  0.09621743151790915  0.3567081840455934  0.5759312293142229  1.0000
  O   O6        1.0  0.9578707515695846  0.7776817212681775  0.5610106188686723  1.0000
  O   O7        1.0  0.9565387935063296  0.5603142027477339  0.7570206900818002  1.0000
  O   O8        1.0  0.9566302654223703  0.5756537917846511  0.3794946536346031  1.0000
  O   O9        1.0  0.9552982333615102  0.3582845410218793  0.5755047967131945  1.0000
