data_image0
_chemical_formula_structural       NC5OC5NC4H8C6BrH5C7NH4Zn2C4O8
_chemical_formula_sum              "N3 C31 O9 H17 Br1 Zn2"
_cell_length_a       19.189071930511275
_cell_length_b       9.276564384272257
_cell_length_c       9.275157849593905
_cell_angle_alpha    86.064957766791
_cell_angle_beta     89.71899716240229
_cell_angle_gamma    90.57707898574843

_space_group_name_H-M_alt    "P 1"
_space_group_IT_number       1

loop_
  _space_group_symop_operation_xyz
  'x, y, z'

loop_
  _atom_site_type_symbol
  _atom_site_label
  _atom_site_symmetry_multiplicity
  _atom_site_fract_x
  _atom_site_fract_y
  _atom_site_fract_z
  _atom_site_occupancy
  N   N1        1.0  0.6674200614424466  0.5627273625660385  0.4085367884592221  1.0000
  C   C1        1.0  0.6132597905183433  0.6137420026981559  0.3881956159301678  1.0000
  C   C2        1.0  0.5458913871282955  0.6771957107929454  0.36289425476584514  1.0000
  C   C3        1.0  0.536968495582324  0.7837372824969502  0.2502621108314862  1.0000
  C   C4        1.0  0.47152746379376653  0.8454568948756425  0.22582439274345864  1.0000
  C   C5        1.0  0.4143531955436109  0.80050548097481  0.3125149845694206  1.0000
  O   O1        1.0  0.3497665002297788  0.8662334475933746  0.2855605240333745  1.0000
  C   C6        1.0  0.284412456534988  0.8002889682232395  0.3118890708218178  1.0000
  C   C7        1.0  0.228004226960338  0.8867683763464823  0.34539464085735644  1.0000
  C   C8        1.0  0.161845709684404  0.8253748484065695  0.37077605849871786  1.0000
  C   C9        1.0  0.1514352375622458  0.6766880521408856  0.36142530457650257  1.0000
  C   C10       1.0  0.08332843421000521  0.6134622954878421  0.38738616158210304  1.0000
  N   N2        1.0  0.028574567095441115  0.5626309885371439  0.40825802303324266  1.0000
  C   C11       1.0  0.20737308427703352  0.5898458350663154  0.3257923274039616  1.0000
  C   C12       1.0  0.2735228546479769  0.6512836250157417  0.3004592941619859  1.0000
  C   C13       1.0  0.42375937065951197  0.6949835060375151  0.4269421719791078  1.0000
  C   C14       1.0  0.48919132114882585  0.6332599920273332  0.45144800426046405  1.0000
  H   H1        1.0  0.5805423991627425  0.8191778505912009  0.18155170319307778  1.0000
  H   H2        1.0  0.46509068035481255  0.9279415718989927  0.13867725777670814  1.0000
  H   H3        1.0  0.235592472368039  0.0018498044263455223  0.35259439445614205  1.0000
  H   H4        1.0  0.11887692120239929  0.8937760630670629  0.3974658506220412  1.0000
  H   H5        1.0  0.1997828972564449  0.47491764005603376  0.3168448381768336  1.0000
  H   H6        1.0  0.3157917833353925  0.5830776690374528  0.26998114177970955  1.0000
  H   H7        1.0  0.3809005578282812  0.6619869161419778  0.4983728409782073  1.0000
  H   H8        1.0  0.4956378172667833  0.5519505161859883  0.5398053522580979  1.0000
  C   C15       1.0  0.845900278178328  0.13920233950190222  0.4087675365072805  1.0000
  C   C16       1.0  0.8372512564718115  0.2214352542385667  0.27705943535377187  1.0000
  C   C17       1.0  0.8350851293951226  0.1551901322583411  0.1465766116603704  1.0000
  C   C18       1.0  0.8415578360060844  0.005769230700035877  0.14532426557754952  1.0000
  C   C19       1.0  0.8489834370266542  0.9218241286358716  0.2750415612796242  1.0000
  C   C20       1.0  0.8501009619376434  0.9861450420245857  0.40803967664482044  1.0000
  Br  Br1       1.0  0.8391080368520661  0.9156875185388302  0.9662786300952617  1.0000
  H   H9        1.0  0.824964330668167  0.40401703926680277  0.6430764313627524  1.0000
  H   H10       1.0  0.8338174840449999  0.33806879893351943  0.2745949203693383  1.0000
  H   H11       1.0  0.8290373859175075  0.2204450880025186  0.04619848501530698  1.0000
  H   H12       1.0  0.8522144404810459  0.8055533572894792  0.27193202589655785  1.0000
  H   H13       1.0  0.8880642833774508  0.6903641738448346  0.6324614399487114  1.0000
  C   C21       1.0  0.8489050934963339  0.5585972334227767  0.9852086496256587  1.0000
  C   C22       1.0  0.9092033837790023  0.605592752382756  0.05481791760326282  1.0000
  C   C23       1.0  0.9659831290763196  0.6639287816218441  0.9748460031348825  1.0000
  C   C24       1.0  0.9631277364167055  0.6761967780813796  0.8241787654095636  1.0000
  C   C25       1.0  0.9042563976133265  0.628033127608393  0.7532278531091423  1.0000
  C   C26       1.0  0.8470961625110155  0.5667501392596144  0.8315986420513384  1.0000
  C   C27       1.0  0.026974399939563964  0.7129324008098208  0.047760610220130006  1.0000
  N   N3        1.0  0.07599576143226994  0.7523180969912051  0.1063716622118771  1.0000
  H   H14       1.0  0.6791060099878499  0.5100199916608847  0.09321892644110186  1.0000
  H   H15       1.0  0.006748516107586864  0.7218002783427613  0.7612832730855299  1.0000
  H   H16       1.0  0.9041398356085939  0.6356148172802648  0.6361570171420866  1.0000
  H   H17       1.0  0.7334716609063076  0.5279887649132354  0.5543130353932852  1.0000
  Zn  Zn1       1.0  0.7716414223328768  0.5626957841376841  0.40846466202584963  1.0000
  Zn  Zn2       1.0  0.9243531401086312  0.5626509275766487  0.4083419424943955  1.0000
  C   C28       1.0  0.847408024283524  0.5594641772874664  0.6716177232138838  1.0000
  C   C29       1.0  0.8485882144874919  0.5658843548436174  0.1451890198488044  1.0000
  C   C30       1.0  0.8493156274198976  0.8259995491215286  0.4024345485663163  1.0000
  C   C31       1.0  0.8466805504837946  0.2993472511850688  0.4143722728593961  1.0000
  O   O2        1.0  0.9064351368257406  0.5683066652184428  0.19883332751816885  1.0000
  O   O3        1.0  0.9054657577193198  0.5570067299283026  0.6178798603475149  1.0000
  O   O4        1.0  0.907005386936022  0.772237428147911  0.40051254164325933  1.0000
  O   O5        1.0  0.9048954557809783  0.35307597628927945  0.4162005382013467  1.0000
  O   O6        1.0  0.7910990545475393  0.7722707354418578  0.4006060663531952  1.0000
  O   O7        1.0  0.7895594340851703  0.5570417690635405  0.6179733067287234  1.0000
  O   O8        1.0  0.7905288166917969  0.5683416374109751  0.19892504129754962  1.0000
  O   O9        1.0  0.7889891353621042  0.3531109392081713  0.41629236003610237  1.0000
