data_image0
_chemical_formula_structural       NC9NC3SH6C6NO2H5C6NCOCH9Zn2C4O8
_chemical_formula_sum              "N4 C30 S1 H20 O11 Zn2"
_cell_length_a       16.77567553997237
_cell_length_b       9.273392599741053
_cell_length_c       10.300272075376753
_cell_angle_alpha    85.66434630960563
_cell_angle_beta     90.39584268328142
_cell_angle_gamma    90.29770283283837

_space_group_name_H-M_alt    "P 1"
_space_group_IT_number       1

loop_
  _space_group_symop_operation_xyz
  'x, y, z'

loop_
  _atom_site_type_symbol
  _atom_site_label
  _atom_site_symmetry_multiplicity
  _atom_site_fract_x
  _atom_site_fract_y
  _atom_site_fract_z
  _atom_site_occupancy
  N   N1        1.0  0.7415475891902475  0.5993019024693356  0.5776277955653761  1.0000
  C   C1        1.0  0.6864854107808009  0.6540620544566746  0.6193366703168752  1.0000
  C   C2        1.0  0.6181524687226498  0.72201578268914  0.6710941938671331  1.0000
  C   C3        1.0  0.6197280205205463  0.8198001865395597  0.7663428934352257  1.0000
  C   C4        1.0  0.5438147596844782  0.8680626072998169  0.7979510840648159  1.0000
  C   C5        1.0  0.48215421954242715  0.808072422819154  0.7272176620445763  1.0000
  C   C6        1.0  0.39549800919304046  0.8370110668096526  0.7381267530931441  1.0000
  C   C7        1.0  0.3391866252782877  0.7486551949969478  0.6796635267782165  1.0000
  C   C8        1.0  0.2573928812428049  0.7753617732931131  0.6895115362693276  1.0000
  C   C9        1.0  0.2004309732273256  0.6840431576506234  0.6296470468193383  1.0000
  N   N2        1.0  0.1546505477404064  0.6106360768459125  0.5815248414710728  1.0000
  C   C10       1.0  0.231078702008773  0.8907724230788474  0.7576623566344529  1.0000
  C   C11       1.0  0.2862974242571675  0.9793047695264241  0.8156643477743176  1.0000
  C   C12       1.0  0.3679312069076277  0.953001449822699  0.8061117388456673  1.0000
  S   S1        1.0  0.5233870988064051  0.6947462741601627  0.6258816790279047  1.0000
  H   H1        1.0  0.6739287476929564  0.8551645128806437  0.8121816153466851  1.0000
  H   H2        1.0  0.5351186489273664  0.9434364132482222  0.8715848940225995  1.0000
  H   H3        1.0  0.3585000727056288  0.6583984681800052  0.627034329994562  1.0000
  H   H4        1.0  0.1679709541264091  0.9123769216051084  0.7657936964335723  1.0000
  H   H5        1.0  0.2658072091369469  0.068882556054203  0.8679747070657059  1.0000
  H   H6        1.0  0.408961128018571  0.024764254456806967  0.8510142472855999  1.0000
  C   C13       1.0  0.95053281305536  0.18150742276343343  0.5787826862626031  1.0000
  C   C14       1.0  0.9403837023545337  0.26460900500793394  0.46006146956446337  1.0000
  C   C15       1.0  0.9232000391627776  0.19907420817415036  0.3455782880465075  1.0000
  C   C16       1.0  0.9155966228504133  0.04844923969915005  0.34662211735186954  1.0000
  C   C17       1.0  0.9269891327718116  0.9642136607495952  0.4644495079657091  1.0000
  C   C18       1.0  0.9456730166226163  0.028419658056112015  0.5803812359978864  1.0000
  N   N3        1.0  0.8971726559842239  0.9814640678965717  0.22831941762742458  1.0000
  O   O1        1.0  0.8867152566105377  0.06430796678619544  0.11293159807685083  1.0000
  O   O2        1.0  0.8901532499808789  0.8473381686935468  0.228460515609187  1.0000
  H   H7        1.0  0.9342951278635825  0.25745201360978887  0.8973511479982764  1.0000
  H   H8        1.0  0.9438684145525584  0.3815480753937702  0.45625761627426625  1.0000
  H   H9        1.0  0.9150565670834235  0.2667932692037758  0.256249279405403  1.0000
  H   H10       1.0  0.9231389746001571  0.8475056143697048  0.46533756791375724  1.0000
  H   H11       1.0  0.9374559820189747  0.7300483325358553  0.7957087810967448  1.0000
  C   C19       1.0  0.9481086124736969  0.6051101787422579  0.1982295817936821  1.0000
  C   C20       1.0  0.866333368058029  0.6369843332141675  0.19408531213940683  1.0000
  C   C21       1.0  0.8253560632877136  0.6550004891675196  0.07458836493438681  1.0000
  C   C22       1.0  0.8663433115682431  0.636655784209313  0.9589508086473822  1.0000
  C   C23       1.0  0.9480972396067988  0.6048168869505273  0.9609343997966207  1.0000
  C   C24       1.0  0.9886129357081759  0.5897514759563007  0.08107545064703747  1.0000
  N   N4        1.0  0.7413651040641704  0.6854033847420635  0.06887786130328499  1.0000
  C   C25       1.0  0.7012802654744301  0.7740847600647704  0.15612594449044948  1.0000
  O   O3        1.0  0.7404034739342644  0.8522969749870668  0.2289075588709166  1.0000
  C   C26       1.0  0.6123629865089225  0.7822530436590212  0.15419529145331112  1.0000
  H   H12       1.0  0.9789496204977491  0.5909084973861913  0.5273685238333314  1.0000
  H   H13       1.0  0.8341940071420465  0.6449590391209943  0.2839424528572232  1.0000
  H   H14       1.0  0.8341227780927681  0.6485845931221305  0.8673024730186003  1.0000
  H   H15       1.0  0.05168831878336521  0.565207083089901  0.0834603200512587  1.0000
  H   H16       1.0  0.9788234870656161  0.5906338542638774  0.634419202771511  1.0000
  H   H17       1.0  0.7082674595990538  0.6485279205835539  0.9915390163352686  1.0000
  H   H18       1.0  0.5865127830294078  0.6737613408748948  0.14136641432255104  1.0000
  H   H19       1.0  0.5903014895482863  0.8201719310140927  0.2471070500048742  1.0000
  H   H20       1.0  0.5927690225334464  0.8587960325236927  0.0722976363912744  1.0000
  Zn  Zn1       1.0  0.8607602043670466  0.6025688474282596  0.5787598988150533  1.0000
  Zn  Zn2       1.0  0.035437994942164375  0.6073573641064942  0.5804033806698168  1.0000
  C   C27       1.0  0.9481305545771286  0.5991276037888502  0.8167559715573239  1.0000
  C   C28       1.0  0.9480695417655872  0.6108004794659952  0.34240745676957696  1.0000
  C   C29       1.0  0.9465875942479325  0.8683371220188357  0.5749041122327019  1.0000
  C   C30       1.0  0.9496124524300551  0.34158922705783196  0.584259381498835  1.0000
  O   O4        1.0  0.014345776561182078  0.6145211224089824  0.3914185496167956  1.0000
  O   O5        1.0  0.014430727307089827  0.599040246492403  0.7689918675270799  1.0000
  O   O6        1.0  0.013183873696066557  0.8164303120660276  0.5736947744027869  1.0000
  O   O7        1.0  0.015592570508769167  0.3971310655544087  0.5867155448293018  1.0000
  O   O8        1.0  0.8806055691914758  0.8127951443478317  0.5724477340879006  1.0000
  O   O9        1.0  0.881852412858261  0.5954068113198723  0.7677447612398907  1.0000
  O   O10       1.0  0.8817674624770527  0.6108876375872097  0.39016988190221147  1.0000
  O   O11       1.0  0.88301425647911  0.3934975703810717  0.5854669744588379  1.0000
