data_image0
_chemical_formula_structural       NC9NC3OH6C8NH7C9H10Zn2C4O8
_chemical_formula_sum              "N3 C33 O9 H23 Zn2"
_cell_length_a       15.78231758774541
_cell_length_b       9.27426342843186
_cell_length_c       9.272679976505533
_cell_angle_alpha    85.97590121954681
_cell_angle_beta     90.48255963298988
_cell_angle_gamma    90.24871893605766

_space_group_name_H-M_alt    "P 1"
_space_group_IT_number       1

loop_
  _space_group_symop_operation_xyz
  'x, y, z'

loop_
  _atom_site_type_symbol
  _atom_site_label
  _atom_site_symmetry_multiplicity
  _atom_site_fract_x
  _atom_site_fract_y
  _atom_site_fract_z
  _atom_site_occupancy
  N   N1        1.0  0.8012672194758755  0.5568901677761955  0.41135593311592755  1.0000
  C   C1        1.0  0.7522692988317191  0.46596364344799596  0.4381498652123948  1.0000
  C   C2        1.0  0.6914366987275608  0.3531017281786646  0.47140803674445264  1.0000
  C   C3        1.0  0.7103725214003448  0.21132827000102059  0.5130975053308273  1.0000
  C   C4        1.0  0.633290063015263  0.1426199643641548  0.5333846145152976  1.0000
  C   C5        1.0  0.5720474876627414  0.24754891583133448  0.502575462494872  1.0000
  C   C6        1.0  0.478857442757155  0.22814997132545842  0.5083734753907243  1.0000
  C   C7        1.0  0.42572156613470674  0.34709862421152593  0.4732642346907814  1.0000
  C   C8        1.0  0.33743388337896246  0.331192018385555  0.4780264154991514  1.0000
  C   C9        1.0  0.2836191974605691  0.45360147079953467  0.44188649869874413  1.0000
  N   N2        1.0  0.24036499798952113  0.5520028661393295  0.41283323894866975  1.0000
  C   C10       1.0  0.30159989254703157  0.19615973933482486  0.5179523478305432  1.0000
  C   C11       1.0  0.3538061161316605  0.07745704813817623  0.5529938380631749  1.0000
  C   C12       1.0  0.44190590022251675  0.09292666269202375  0.5483610700439445  1.0000
  O   O1        1.0  0.6091431571752319  0.3719024972268439  0.46595442128260456  1.0000
  H   H1        1.0  0.7725876049611097  0.16351672228216432  0.5271002404548637  1.0000
  H   H2        1.0  0.6239788469880689  0.029644533422988232  0.5666227594789337  1.0000
  H   H3        1.0  0.4528649810066976  0.45217763857189347  0.4421895383499155  1.0000
  H   H4        1.0  0.23341482236882471  0.1826876519606595  0.5219833111816095  1.0000
  H   H5        1.0  0.32593606517275675  0.9730964122152292  0.5838565618948077  1.0000
  H   H6        1.0  0.48051083518486487  0.998905845085897  0.5761255564304164  1.0000
  C   C13       1.0  0.018140243287398702  0.1308953252894396  0.4123919452984517  1.0000
  C   C14       1.0  0.006649096673613466  0.21332398115062778  0.28059646555353934  1.0000
  C   C15       1.0  0.003473042740389284  0.14739862260712266  0.15002165239885645  1.0000
  C   C16       1.0  0.012398316793923881  0.9975010815900089  0.14801489672641033  1.0000
  C   C17       1.0  0.021611987567930133  0.9135860688560676  0.2789189733530144  1.0000
  C   C18       1.0  0.023500045092200928  0.977986684121165  0.4118097306653272  1.0000
  C   C19       1.0  0.007710395096010678  0.9264348803592115  0.0073349698842606345  1.0000
  C   C20       1.0  0.919669696610767  0.8882209264302843  0.9749974667079666  1.0000
  N   N3        1.0  0.8501810896959798  0.8580581976463818  0.9494836987021493  1.0000
  H   H7        1.0  0.09261938519072999  0.21100453350449008  0.745023407528812  1.0000
  H   H8        1.0  0.001955692152495025  0.32997614202106873  0.27821945869168774  1.0000
  H   H9        1.0  0.9948410827961717  0.2136195759967394  0.050082782397588003  1.0000
  H   H10       1.0  0.025262605629622556  0.7970406101616448  0.2770322476945304  1.0000
  H   H11       1.0  0.07035499468147671  0.6817845551438172  0.6377030529242802  1.0000
  H   H12       1.0  0.046878459343304694  0.8269284880113758  0.013045913306201534  1.0000
  H   H13       1.0  0.03236435647178368  0.00025237467961568706  0.9177001902277535  1.0000
  C   C21       1.0  0.019080792658251248  0.5510542460208065  0.9887347176345944  1.0000
  C   C22       1.0  0.0760943440530002  0.461194945225665  0.06925597180416854  1.0000
  C   C23       1.0  0.1373541641615721  0.38297713528177324  0.0009159980093360561  1.0000
  C   C24       1.0  0.1436724142719429  0.39204566953473424  0.8500685287301106  1.0000
  C   C25       1.0  0.08562949856173246  0.4799587778844309  0.7681609218327403  1.0000
  C   C26       1.0  0.02255947787759127  0.5578277406896386  0.8354669891991033  1.0000
  C   C27       1.0  0.21277392179164034  0.30438578117158643  0.7842143338131407  1.0000
  C   C28       1.0  0.19218207478906346  0.23860320095388943  0.6420919587810938  1.0000
  C   C29       1.0  0.2525922417575681  0.3670862668946506  0.6443852175124012  1.0000
  H   H14       1.0  0.8921274099909163  0.6499929089668925  0.2611893908397427  1.0000
  H   H15       1.0  0.07470704168757059  0.4539343948602892  0.18633106174168956  1.0000
  H   H16       1.0  0.18079325570483817  0.3158335427217261  0.06674177661984726  1.0000
  H   H17       1.0  0.08756416450299431  0.48617289168794997  0.6513841089213743  1.0000
  H   H18       1.0  0.831066486678522  0.6956569807978602  0.7200238694525424  1.0000
  H   H19       1.0  0.25664501500530945  0.23900961549748437  0.856594180559684  1.0000
  H   H20       1.0  0.1294049957637946  0.2639168829780103  0.5921817111429264  1.0000
  H   H21       1.0  0.22443394635407232  0.13440180359835252  0.6279800439748966  1.0000
  H   H22       1.0  0.22655133826570995  0.47037985274255023  0.5957514851206822  1.0000
  H   H23       1.0  0.3201610476729675  0.3379680339747768  0.6316098227632301  1.0000
  Zn  Zn1       1.0  0.92798135947498  0.5554760119689884  0.41179057297952903  1.0000
  Zn  Zn2       1.0  0.11365080343275452  0.5534053443724682  0.41241039258812484  1.0000
  C   C30       1.0  0.021863693978059654  0.5508014819966089  0.6754203599924078  1.0000
  C   C31       1.0  0.01977050853038964  0.5580816727284842  0.14878075259614199  1.0000
  C   C32       1.0  0.0224589596269562  0.8178224403091214  0.4061746769760013  1.0000
  C   C33       1.0  0.019175168876806703  0.2910589828535739  0.4180265134554615  1.0000
  O   O2        1.0  0.09046253002128507  0.5596480413511495  0.20272888660406285  1.0000
  O   O3        1.0  0.09209047576293544  0.5476624331730224  0.6219422404588483  1.0000
  O   O4        1.0  0.09257021661899523  0.7632852565363768  0.40452444226351414  1.0000
  O   O5        1.0  0.08998272542999808  0.34402522814743164  0.42014657648301945  1.0000
  O   O6        1.0  0.9516493741178459  0.7648561289021515  0.40405438886553613  1.0000
  O   O7        1.0  0.9511696439065818  0.5492350378093214  0.6214721089988586  1.0000
  O   O8        1.0  0.9495416907820213  0.5612205818592257  0.20225702183319738  1.0000
  O   O9        1.0  0.9490618865660713  0.3455977592039983  0.4196748198094331  1.0000
