data_image0
_chemical_formula_structural       NC5OC5NC4H8C6NCH9C7ONH5Zn2C4O8
_chemical_formula_sum              "N4 C32 O10 H22 Zn2"
_cell_length_a       19.189071930511275
_cell_length_b       9.273386996610926
_cell_length_c       9.27304215883966
_cell_angle_alpha    86.06883900085258
_cell_angle_beta     90.07135709723086
_cell_angle_gamma    89.38971707573329

_space_group_name_H-M_alt    "P 1"
_space_group_IT_number       1

loop_
  _space_group_symop_operation_xyz
  'x, y, z'

loop_
  _atom_site_type_symbol
  _atom_site_label
  _atom_site_symmetry_multiplicity
  _atom_site_fract_x
  _atom_site_fract_y
  _atom_site_fract_z
  _atom_site_occupancy
  N   N1        1.0  0.6470399756402724  0.5619262127464084  0.4070488823958127  1.0000
  C   C1        1.0  0.5923082239223835  0.6129431164568794  0.38666403296435314  1.0000
  C   C2        1.0  0.5242289927020801  0.6763996397660494  0.3613083449628183  1.0000
  C   C3        1.0  0.5139043927761989  0.7828828778074086  0.24857412074548038  1.0000
  C   C4        1.0  0.4477724700804382  0.844605383256924  0.22408358715738877  1.0000
  C   C5        1.0  0.39130585309175486  0.7997137920910488  0.3108233137301599  1.0000
  O   O1        1.0  0.325980638173498  0.8654440039764753  0.28381246365284674  1.0000
  C   C6        1.0  0.2613654256638364  0.7994966294691559  0.31019747505795014  1.0000
  C   C7        1.0  0.204190208177024  0.886040991486605  0.3436395328064512  1.0000
  C   C8        1.0  0.1387221155909688  0.8246455501520782  0.3690736530376666  1.0000
  C   C9        1.0  0.1297735696446969  0.6758904561308128  0.35983957059151894  1.0000
  C   C10       1.0  0.062377267606646206  0.6126625689295055  0.38585467547221164  1.0000
  N   N2        1.0  0.008194619511797896  0.5618295493046273  0.40677015036271524  1.0000
  C   C11       1.0  0.1864757253223834  0.5889812266133685  0.3242700644870553  1.0000
  C   C12       1.0  0.2519347711460516  0.650420991281004  0.29888430098527774  1.0000
  C   C13       1.0  0.4021088488289693  0.6942521751491855  0.4253520494092242  1.0000
  C   C14       1.0  0.4682319314705086  0.6325258277270066  0.44991071083803863  1.0000
  H   H1        1.0  0.5569192963926081  0.8182759552048108  0.17982491828186342  1.0000
  H   H2        1.0  0.44025063840900447  0.9270449457839166  0.13685742963924108  1.0000
  H   H3        1.0  0.210646832309519  0.0011752472454871273  0.3507489785498379  1.0000
  H   H4        1.0  0.09514723437411952  0.8930983097319123  0.3957132390577489  1.0000
  H   H5        1.0  0.1800104372750869  0.4739986945415853  0.3154124907374798  1.0000
  H   H6        1.0  0.2947965928805208  0.5821601635343007  0.26845561294026044  1.0000
  H   H7        1.0  0.3597926234068143  0.6613065057467946  0.4968199929406394  1.0000
  H   H8        1.0  0.4757552933688707  0.5512630276670376  0.5383463351942022  1.0000
  C   C15       1.0  0.8297641319999127  0.13823079847631978  0.4076161221514707  1.0000
  C   C16       1.0  0.8419046822515645  0.22033033361154386  0.2772847096784481  1.0000
  C   C17       1.0  0.8474837304440852  0.15445305080936156  0.14695030558253386  1.0000
  C   C18       1.0  0.8410056251991667  0.004118932694580083  0.1436150117461048  1.0000
  C   C19       1.0  0.8300928256058572  0.9210513858399828  0.27349276703639536  1.0000
  C   C20       1.0  0.8254772037103751  0.985514011810027  0.4062153996993736  1.0000
  N   N3        1.0  0.8459935879333921  0.9331770384830141  0.010590270075166549  1.0000
  C   C21       1.0  0.8574994868154927  0.009588820964606228  0.869929009739586  1.0000
  H   H9        1.0  0.8441751963070833  0.40286436800147135  0.6442386370479534  1.0000
  H   H10       1.0  0.8454578026840639  0.33695664888545296  0.2755136553263049  1.0000
  H   H11       1.0  0.8562001713110835  0.22202150974449905  0.0490391986053027  1.0000
  H   H12       1.0  0.8268018523549178  0.8046272447592242  0.27122153293439166  1.0000
  H   H13       1.0  0.8513934483568126  0.8578431511508045  0.7572504698301541  1.0000
  H   H14       1.0  0.8410689566037503  0.8208427179182988  0.013582903964040275  1.0000
  H   H15       1.0  0.8142797369090092  0.0879101444006607  0.8449195643330971  1.0000
  H   H16       1.0  0.9079397260442715  0.06712952419141072  0.8701226616685149  1.0000
  H   H17       1.0  0.859193611529031  0.931252921964426  0.784599304738574  1.0000
  C   C22       1.0  0.8273099985908811  0.5574138742604442  0.9836584698638161  1.0000
  C   C23       1.0  0.763256948269106  0.566617666059382  0.05637349288147386  1.0000
  C   C24       1.0  0.7003917319241292  0.5897754683367493  0.9801275057882778  1.0000
  C   C25       1.0  0.7019747332381329  0.6019868520962164  0.8286073469373232  1.0000
  C   C26       1.0  0.7648976619730176  0.5906652533199834  0.7548872755452334  1.0000
  C   C27       1.0  0.8279313728030091  0.5663309158099188  0.830173051926375  1.0000
  C   C28       1.0  0.6337488582962708  0.5997525567426409  0.060022460399557165  1.0000
  O   O2        1.0  0.6293756713524574  0.5439259460812895  0.18748897190891234  1.0000
  N   N4        1.0  0.5741014968995342  0.6729580612561242  0.9964107517120885  1.0000
  H   H18       1.0  0.996107504495402  0.6124737775807803  0.08339692343880967  1.0000
  H   H19       1.0  0.6545129516462428  0.616263508122046  0.7659972099865602  1.0000
  H   H20       1.0  0.9417403521689441  0.5967228759494729  0.547113011094742  1.0000
  H   H21       1.0  0.5771423653103325  0.7352548411995885  0.8986393407308633  1.0000
  H   H22       1.0  0.5270007285386946  0.6728082832099737  0.0526898367511568  1.0000
  Zn  Zn1       1.0  0.7512614388489869  0.5618945567608744  0.4069767698797324  1.0000
  Zn  Zn2       1.0  0.9039732418209033  0.561849571814089  0.4068540669793348  1.0000
  C   C29       1.0  0.8278414254832921  0.5588982064534316  0.6701731490495717  1.0000
  C   C30       1.0  0.8273949136887108  0.5648477433961003  0.1436578249272209  1.0000
  C   C31       1.0  0.8262797332120404  0.8252989615165055  0.40073654932727165  1.0000
  C   C32       1.0  0.828956562676187  0.29844525588139303  0.41309450440047235  1.0000
  O   O3        1.0  0.8853767771791589  0.5673192523935298  0.19730851539257288  1.0000
  O   O4        1.0  0.8857642921399222  0.5563914622179471  0.6164289168131245  1.0000
  O   O5        1.0  0.884502425742006  0.7715134570460336  0.39885695437652147  1.0000
  O   O6        1.0  0.8866385913353414  0.35219726676252594  0.41488036978399  1.0000
  O   O7        1.0  0.7685960372214921  0.7715468618292798  0.398950467109366  1.0000
  O   O8        1.0  0.7698578947901269  0.5564265994696684  0.6165223498293062  1.0000
  O   O9        1.0  0.7694703788581017  0.5673543211180792  0.19740021559180398  1.0000
  O   O10       1.0  0.7707321931429612  0.3522323263068343  0.41497217806269626  1.0000
