data_image0
_chemical_formula_structural       NC5NC3OH4C6BrH5C6NCH7Zn2C4O8
_chemical_formula_sum              "N3 C25 O9 H16 Br1 Zn2"
_cell_length_a       13.84702359539666
_cell_length_b       9.276564384272257
_cell_length_c       9.273390368590327
_cell_angle_alpha    86.11919172510322
_cell_angle_beta     89.97653543286326
_cell_angle_gamma    90.58678901707502

_space_group_name_H-M_alt    "P 1"
_space_group_IT_number       1

loop_
  _space_group_symop_operation_xyz
  'x, y, z'

loop_
  _atom_site_type_symbol
  _atom_site_label
  _atom_site_symmetry_multiplicity
  _atom_site_fract_x
  _atom_site_fract_y
  _atom_site_fract_z
  _atom_site_occupancy
  N   N1        1.0  0.9202443078318424  0.5613675527241846  0.4085267918066391  1.0000
  C   C1        1.0  0.8480385990885695  0.5533682888235643  0.47158585293933686  1.0000
  C   C2        1.0  0.7581154330415402  0.5434075153929117  0.5501076707918111  1.0000
  C   C3        1.0  0.6706054175784065  0.5530302474149742  0.4742499582960012  1.0000
  C   C4        1.0  0.5826707493183884  0.5435193155978395  0.5492259115813292  1.0000
  C   C5        1.0  0.49289602277250055  0.5534266740097278  0.47112528421862265  1.0000
  N   N2        1.0  0.4207287661827417  0.5613914319761519  0.4083386061955321  1.0000
  C   C6        1.0  0.5822405231120477  0.5243569397056111  0.7002849501054278  1.0000
  C   C7        1.0  0.669370240960164  0.5147252093319925  0.7762106929860673  1.0000
  C   C8        1.0  0.7576198661743284  0.5241748631684757  0.7017194138074954  1.0000
  O   O1        1.0  0.84446982561917  0.5145267090045815  0.7777765577279467  1.0000
  H   H1        1.0  0.6709433008646247  0.5678757254188336  0.3572224132971127  1.0000
  H   H2        1.0  0.5146281363861254  0.5168713264086819  0.7592944756895419  1.0000
  H   H3        1.0  0.6682542306904307  0.4999091844163976  0.8930068314282957  1.0000
  H   H4        1.0  0.8458950890495179  0.5006602789335572  0.8870860370849756  1.0000
  C   C9        1.0  0.16758153989076185  0.137902301278084  0.40880233416399836  1.0000
  C   C10       1.0  0.15521001272626392  0.22000136718035646  0.27707738150108296  1.0000
  C   C11       1.0  0.1518260215741769  0.15362577745215608  0.14657946900388197  1.0000
  C   C12       1.0  0.1607921820671703  0.004205789965660453  0.14532860688006544  1.0000
  C   C13       1.0  0.17146247081626864  0.9203921490446517  0.275062225294775  1.0000
  C   C14       1.0  0.1734006842601541  0.9848456814317416  0.4080754468307197  1.0000
  Br  Br1       1.0  0.1568728382306288  0.9139452271690994  0.9662623979389277  1.0000
  H   H5        1.0  0.13925495788147235  0.4029430008572054  0.6431320970078911  1.0000
  H   H6        1.0  0.15044429780633628  0.33663131576486527  0.2746117304860749  1.0000
  H   H7        1.0  0.143151092920331  0.21877890500989117  0.046188635817852486  1.0000
  H   H8        1.0  0.17593086343112452  0.8041193636272478  0.2719531537184465  1.0000
  H   H9        1.0  0.2266673111374229  0.6893006310171106  0.6325317497965566  1.0000
  C   C15       1.0  0.17050497305668877  0.5568770334105912  0.9851969850955982  1.0000
  C   C16       1.0  0.2591824172168746  0.5540159460302723  0.05876857485350695  1.0000
  C   C17       1.0  0.3464048900116181  0.5645603593273936  0.9833119676433695  1.0000
  C   C18       1.0  0.34716687993434636  0.5783566394838497  0.8316718881778993  1.0000
  C   C19       1.0  0.25906135404214226  0.5787857725778414  0.7572925622012514  1.0000
  C   C20       1.0  0.1704772699984225  0.5658710047486588  0.8316808346381159  1.0000
  N   N3        1.0  0.4360329910281022  0.5905615435322178  0.7508397590935574  1.0000
  C   C21       1.0  0.5313841944441742  0.5907360549879586  0.8177919540678524  1.0000
  H   H10       1.0  0.0176008602878086  0.4875989867761048  0.27115375017965304  1.0000
  H   H11       1.0  0.41293380557943093  0.5632365724198807  0.04440908883323069  1.0000
  H   H12       1.0  0.9446477993343054  0.45382607901503924  0.7363705331237909  1.0000
  H   H13       1.0  0.43296523231616635  0.6001186592344387  0.6379569019855942  1.0000
  H   H14       1.0  0.538287307515581  0.6832438454282017  0.8871787417746932  1.0000
  H   H15       1.0  0.5424557702670625  0.4876546158983668  0.8834299280695895  1.0000
  H   H16       1.0  0.5880537427388067  0.6016406469592641  0.7328707485249595  1.0000
  Zn  Zn1       1.0  0.06467328292900376  0.5613706715088675  0.4084807994071009  1.0000
  Zn  Zn2       1.0  0.2762996855676303  0.5613766385558958  0.4083963712129388  1.0000
  C   C22       1.0  0.17044085983637536  0.5584260061698412  0.6716822000781371  1.0000
  C   C23       1.0  0.1705344321110125  0.5643231250086673  0.14519510952026704  1.0000
  C   C24       1.0  0.172295955929926  0.824694353097523  0.40246949693781375  1.0000
  C   C25       1.0  0.16867925189750443  0.2980530463141129  0.414407891017083  1.0000
  O   O2        1.0  0.25085539251375666  0.5668180745165396  0.1988599070175705  1.0000
  O   O3        1.0  0.2507394348736296  0.555934493207096  0.6179529095755618  1.0000
  O   O4        1.0  0.2522363657487059  0.7709495666667506  0.40056174621031615  1.0000
  O   O5        1.0  0.2493583894993423  0.3518030102226295  0.41625096233669634  1.0000
  O   O6        1.0  0.09161450677959748  0.7709442998415872  0.4006262083045722  1.0000
  O   O7        1.0  0.09011758780678393  0.5559309581482581  0.6180172933345549  1.0000
  O   O8        1.0  0.09023354522262328  0.566814470793358  0.1989225579824736  1.0000
  O   O9        1.0  0.08873654212985317  0.35179939733315635  0.4163137213689485  1.0000
