data_image0
_chemical_formula_structural       NC9NC3OH6C10IC2H7C10ClC2H9Zn2C4O8
_chemical_formula_sum              "N2 C40 O9 H22 I1 Cl1 Zn2"
_cell_length_a       15.78231758774541
_cell_length_b       10.299770258652044
_cell_length_c       10.299772619071826
_cell_angle_alpha    85.54407940277211
_cell_angle_beta     90.08793308491676
_cell_angle_gamma    89.64982520104654

_space_group_name_H-M_alt    "P 1"
_space_group_IT_number       1

loop_
  _space_group_symop_operation_xyz
  'x, y, z'

loop_
  _atom_site_type_symbol
  _atom_site_label
  _atom_site_symmetry_multiplicity
  _atom_site_fract_x
  _atom_site_fract_y
  _atom_site_fract_z
  _atom_site_occupancy
  N   N1        1.0  0.7980859033343496  0.41370435863740246  0.5699464078404834  1.0000
  C   C1        1.0  0.7495387998504593  0.331634235362126  0.5940241604286112  1.0000
  C   C2        1.0  0.6892657718419977  0.22976526332081554  0.6239108543821867  1.0000
  C   C3        1.0  0.7089048656201945  0.10180144347415698  0.6613739482894468  1.0000
  C   C4        1.0  0.6321629034902859  0.03978514368443297  0.6796045814117857  1.0000
  C   C5        1.0  0.5703996407314135  0.13449300272601764  0.6519188846451807  1.0000
  C   C6        1.0  0.4773054488240537  0.1169829382268235  0.6571293132573146  1.0000
  C   C7        1.0  0.42358005255906594  0.2243462191475385  0.6255790736194997  1.0000
  C   C8        1.0  0.33537093464728407  0.20998838380139873  0.6298586608779373  1.0000
  C   C9        1.0  0.28094961392305545  0.32047545766667174  0.5973822042049144  1.0000
  N   N2        1.0  0.2372077641453831  0.40929281068794343  0.5712740355285417  1.0000
  C   C10       1.0  0.30020589654912333  0.08810747171401043  0.6657374777749983  1.0000
  C   C11       1.0  0.3530004012972265  0.9809661599894131  0.6972268452839894  1.0000
  C   C12       1.0  0.44102378458652686  0.9949295629675794  0.6930635532547252  1.0000
  O   O1        1.0  0.606878667822035  0.24673415710079769  0.6190102759462088  1.0000
  H   H1        1.0  0.771357346914179  0.058647468764599475  0.6739569977355704  1.0000
  H   H2        1.0  0.6234120371500858  0.9378141129149234  0.7094731627510313  1.0000
  H   H3        1.0  0.45020292489789826  0.3191911814954888  0.5976542706331491  1.0000
  H   H4        1.0  0.23208737629031953  0.07594713196874724  0.6693599432029982  1.0000
  H   H5        1.0  0.32564733226086995  0.88676960689324  0.7249611634211663  1.0000
  H   H6        1.0  0.48009464242689576  0.9100660962386281  0.7180135998263006  1.0000
  C   C13       1.0  0.017571026198382803  0.03013410047681254  0.570606887027436  1.0000
  C   C14       1.0  0.023852846267220715  0.03967479488715098  0.43422952836018064  1.0000
  C   C15       1.0  0.027117092669098904  0.9273690377138238  0.3651354194611498  1.0000
  C   C16       1.0  0.02401427337987672  0.8043853728709209  0.4342476326579594  1.0000
  C   C17       1.0  0.01773071376942492  0.792852983082878  0.5706248180565712  1.0000
  C   C18       1.0  0.014544742380262706  0.9062842055798932  0.6380408123692141  1.0000
  C   C19       1.0  0.03376323554215975  0.9385156256234327  0.2208613741909835  1.0000
  C   C20       1.0  0.0879795060504196  0.8551549294741085  0.15707832520121667  1.0000
  C   C21       1.0  0.09414960848959741  0.8658589819862954  0.02127612060650463  1.0000
  C   C22       1.0  0.04634978024516112  0.9596250539972522  0.9476133388011627  1.0000
  I   I1        1.0  0.05578492021638336  0.9754493985494429  0.7427729865499955  1.0000
  C   C23       1.0  0.9922889661793768  0.0428903780886758  0.009878074910063983  1.0000
  C   C24       1.0  0.9859490736806276  0.032613384410425265  0.14566123641708062  1.0000
  H   H7        1.0  0.02739074263783413  0.13466523456712864  0.381548937426639  1.0000
  H   H8        1.0  0.02534166029670358  0.7175543501525588  0.38131975312239375  1.0000
  H   H9        1.0  0.00969783613354602  0.8981557731266453  0.7432496133220092  1.0000
  H   H10       1.0  0.1263917293811201  0.7828852030326398  0.21227336498283586  1.0000
  H   H11       1.0  0.13626005383185538  0.8014434330815917  0.973406245463178  1.0000
  H   H12       1.0  0.9549977347468414  0.11538853244413551  0.9531232538827131  1.0000
  H   H13       1.0  0.9428719400311386  0.09705962280313726  0.19173780282024677  1.0000
  C   C25       1.0  0.01763266490780802  0.41161341583356953  0.18924551246355703  1.0000
  C   C26       1.0  0.10425763435949603  0.4419651335042251  0.18609545644285763  1.0000
  C   C27       1.0  0.14817000497156396  0.45722291416008565  0.06737015283749859  1.0000
  C   C28       1.0  0.10429446462189679  0.441723109806716  0.9508279431953199  1.0000
  C   C29       1.0  0.017669091870326593  0.41137365670640186  0.9519861351050704  1.0000
  C   C30       1.0  0.9748234068062226  0.39648836340370613  0.07168089180487036  1.0000
  C   C31       1.0  0.23981240282532934  0.4893303827392576  0.06509081915452408  1.0000
  C   C32       1.0  0.2956135382753249  0.4281446281431702  0.9821738987262488  1.0000
  C   C33       1.0  0.3818522543174989  0.45847838582860295  0.9802148324323626  1.0000
  C   C34       1.0  0.4133889634314982  0.5501449632126343  0.060772633686461124  1.0000
  Cl  Cl1       1.0  0.5216061563364165  0.5880610235389038  0.05807977924409502  1.0000
  C   C35       1.0  0.3585597400915468  0.6115519324366637  0.14347945577668475  1.0000
  C   C36       1.0  0.27228666853594685  0.581444368118526  0.14581198626556313  1.0000
  H   H14       1.0  0.9846161749515041  0.4000962578354055  0.5178954494840071  1.0000
  H   H15       1.0  0.13805074841655873  0.4520560554477806  0.27632175641962076  1.0000
  H   H16       1.0  0.13758223767778754  0.45513486601471603  0.8589334480258821  1.0000
  H   H17       1.0  0.9079961183919828  0.37307380752222974  0.07334293810592296  1.0000
  H   H18       1.0  0.9846695284664571  0.39974858383613876  0.624978742653771  1.0000
  H   H19       1.0  0.27275848927600665  0.3556583845582153  0.9201387923023198  1.0000
  H   H20       1.0  0.4241166060934176  0.41040511758466397  0.9162583494118198  1.0000
  H   H21       1.0  0.38265635120238417  0.682875375240419  0.2057848820222747  1.0000
  H   H22       1.0  0.23080162440670937  0.6313884368442322  0.2094476216040646  1.0000
  Zn  Zn1       1.0  0.9248069827965211  0.41242780990259015  0.5703370259257654  1.0000
  Zn  Zn2       1.0  0.11048665447821387  0.41055875673992204  0.5708940335528727  1.0000
  C   C37       1.0  0.017659226394667108  0.4062454073044124  0.8078117249137734  1.0000
  C   C38       1.0  0.017636438845486154  0.4167427774884165  0.33341946815276513  1.0000
  C   C39       1.0  0.017695929369182063  0.6486845700904313  0.56544620519499  1.0000
  C   C40       1.0  0.017599672188091105  0.17430205503411855  0.5757850568837353  1.0000
  O   O2        1.0  0.08810217195262843  0.41774927650747884  0.3820169460860128  1.0000
  O   O3        1.0  0.08812006753579976  0.4038193605883073  0.7596366290107992  1.0000
  O   O4        1.0  0.088148755821644  0.5995920597369371  0.5639247542437575  1.0000
  O   O5        1.0  0.08807342030418502  0.22197658731734785  0.5777287232881745  1.0000
  O   O6        1.0  0.9472201536071905  0.6010099799643966  0.5635023359935531  1.0000
  O   O7        1.0  0.9471914656408669  0.40523884112327746  0.7592141415514978  1.0000
  O   O8        1.0  0.9471735700300177  0.41916871227718205  0.38159289721934564  1.0000
  O   O9        1.0  0.9471448183808142  0.2233960137677848  0.5773047717894766  1.0000
