data_image0
_chemical_formula_structural       NC5NC3F3CH3C7NH5C6H6Zn2C4O8
_chemical_formula_sum              "N3 C26 F3 H14 Zn2 O8"
_cell_length_a       13.85151926108384
_cell_length_b       9.275154477615127
_cell_length_c       10.681121600428288
_cell_angle_alpha    85.78691594316618
_cell_angle_beta     89.99987223705872
_cell_angle_gamma    89.43371178103573

_space_group_name_H-M_alt    "P 1"
_space_group_IT_number       1

loop_
  _space_group_symop_operation_xyz
  'x, y, z'

loop_
  _atom_site_type_symbol
  _atom_site_label
  _atom_site_symmetry_multiplicity
  _atom_site_fract_x
  _atom_site_fract_y
  _atom_site_fract_z
  _atom_site_occupancy
  N   N1        1.0  0.8986418196526103  0.5778877691964308  0.6241001814757281  1.0000
  C   C1        1.0  0.8263722887043078  0.5688101473286505  0.6783338291429819  1.0000
  C   C2        1.0  0.7364633114755633  0.557516340862634  0.7458082455370125  1.0000
  C   C3        1.0  0.6488763521746218  0.5667354275127461  0.6802314915415117  1.0000
  C   C4        1.0  0.5614113220586956  0.557516327720331  0.7458082280668652  1.0000
  C   C5        1.0  0.47135303647803434  0.5688101634742386  0.6783339109152617  1.0000
  N   N2        1.0  0.3989636342898788  0.5778877313172436  0.6241002729524336  1.0000
  C   C6        1.0  0.5615305913430257  0.5380804226594817  0.8771112127382835  1.0000
  C   C7        1.0  0.6491477281074208  0.5256723395815053  0.9437733767584836  1.0000
  C   C8        1.0  0.6492505872688628  0.5100991346380731  0.08533657383544357  1.0000
  F   F1        1.0  0.7306799242224953  0.4353033854722379  0.12990551027635155  1.0000
  F   F2        1.0  0.5688111097640893  0.4353033548805141  0.12990559643030286  1.0000
  F   F3        1.0  0.6483518955040959  0.6458788924581411  0.13073324183625012  1.0000
  C   C9        1.0  0.7366009188141548  0.5380803274302188  0.8771112294514289  1.0000
  H   H1        1.0  0.6487758653790688  0.5819435542062747  0.5785726156390689  1.0000
  H   H2        1.0  0.4934415192870024  0.5329037195029263  0.9271759046694222  1.0000
  H   H3        1.0  0.8047582733415414  0.5329036386244237  0.9271758687383647  1.0000
  C   C10       1.0  0.15160101233652168  0.1544984696604459  0.6226510800984872  1.0000
  C   C11       1.0  0.12510168893102325  0.23767754625660167  0.5122371315542038  1.0000
  C   C12       1.0  0.09074979420568945  0.17163911366268536  0.40767197353800344  1.0000
  C   C13       1.0  0.08233160331281257  0.021518589274327933  0.4122892825799964  1.0000
  C   C14       1.0  0.10972569712529978  0.937131837447674  0.5201864332485038  1.0000
  C   C15       1.0  0.14601374595379268  0.001265988007419508  0.6255601607821868  1.0000
  C   C16       1.0  0.06296607859911485  0.2584000024819062  0.2959272488916129  1.0000
  N   N3        1.0  0.04063567797148715  0.328139851054412  0.20611311342978955  1.0000
  H   H4        1.0  0.17031996699385155  0.23116955055172816  0.930041812289086  1.0000
  H   H5        1.0  0.12904435316974938  0.3546369462569925  0.5085214431115208  1.0000
  H   H6        1.0  0.055415604119901866  0.9693920076807971  0.33192439137866936  1.0000
  H   H7        1.0  0.1046562451980007  0.8206642414268212  0.5200762247413326  1.0000
  H   H8        1.0  0.16271451601510717  0.7024957582443566  0.8315206954008225  1.0000
  C   C17       1.0  0.14880739797722775  0.5778821977538677  0.2563603734613149  1.0000
  C   C18       1.0  0.08023648353968915  0.49769592834464604  0.1946623971970951  1.0000
  C   C19       1.0  0.08023642265439036  0.4976960207925701  0.06378025756179717  1.0000
  C   C20       1.0  0.14880732161699903  0.5778822684295524  0.9918508093804546  1.0000
  C   C21       1.0  0.21732164136527307  0.6580020874352495  0.053547977000790066  1.0000
  C   C22       1.0  0.21732162916114972  0.6580020650785051  0.18444027558702825  1.0000
  H   H9        1.0  0.21815076431456285  0.6589725488365152  0.5498967105681933  1.0000
  H   H10       1.0  0.026487363694468483  0.43484214060895954  0.24748329127773627  1.0000
  H   H11       1.0  0.02648734308415991  0.4348422084757919  0.018979262285355517  1.0000
  H   H12       1.0  0.2710777796740311  0.7208641576819534  0.0007714467432760039  1.0000
  H   H13       1.0  0.2710777313664352  0.7208641071396381  0.22919581405403863  1.0000
  H   H14       1.0  0.21815106893667088  0.6589720465158813  0.6879676831290866  1.0000
  Zn  Zn1       1.0  0.043023913385428436  0.5778839092570669  0.624107412777863  1.0000
  Zn  Zn2       1.0  0.2545816006970243  0.5778798313188424  0.6241032118593992  1.0000
  C   C23       1.0  0.148843107239798  0.5721384988431495  0.8528076517360297  1.0000
  C   C24       1.0  0.14876470504250272  0.5836270608558516  0.3954031020180023  1.0000
  C   C25       1.0  0.14706488512964233  0.8412088829036362  0.6200199532697985  1.0000
  C   C26       1.0  0.15054286639261227  0.31455494457535016  0.6281908612998861  1.0000
  O   O1        1.0  0.22903545819991175  0.5855472518267013  0.4420654960568471  1.0000
  O   O2        1.0  0.22913975081708204  0.5702141251402516  0.8061417050695254  1.0000
  O   O3        1.0  0.2277027316936293  0.7874918631494694  0.6181639967182007  1.0000
  O   O4        1.0  0.23047240506500732  0.36826952413271724  0.6300431105488964  1.0000
  O   O5        1.0  0.06713303682317862  0.787494216446153  0.6181675140832175  1.0000
  O   O6        1.0  0.06857004451241137  0.5702182106599116  0.8061451616137412  1.0000
  O   O7        1.0  0.06846575229105434  0.5855512871038773  0.4420674468058705  1.0000
  O   O8        1.0  0.06990269922024056  0.368273549097621  0.6300451551520474  1.0000
