data_image0
_chemical_formula_structural       NC5NC3OH4C6NH7C6SCH8Zn2C4O8
_chemical_formula_sum              "N3 C25 O9 H19 S1 Zn2"
_cell_length_a       13.84702359539666
_cell_length_b       9.274771166103582
_cell_length_c       10.302812801239593
_cell_angle_alpha    85.45577702643503
_cell_angle_beta     89.9855797555544
_cell_angle_gamma    90.59789355945463

_space_group_name_H-M_alt    "P 1"
_space_group_IT_number       1

loop_
  _space_group_symop_operation_xyz
  'x, y, z'

loop_
  _atom_site_type_symbol
  _atom_site_label
  _atom_site_symmetry_multiplicity
  _atom_site_fract_x
  _atom_site_fract_y
  _atom_site_fract_z
  _atom_site_occupancy
  N   N1        1.0  0.9203983417251275  0.5787078800444869  0.565030424585766  1.0000
  C   C1        1.0  0.8481935623170352  0.5700362421045837  0.6218405448996009  1.0000
  C   C2        1.0  0.7582715534875454  0.5592382213224996  0.6925811147650385  1.0000
  C   C3        1.0  0.6707604200574362  0.5696697943607072  0.624240646457913  1.0000
  C   C4        1.0  0.5828268567623783  0.559359423365339  0.6917867349739086  1.0000
  C   C5        1.0  0.4930509792081514  0.5700995381435947  0.6214256170248025  1.0000
  N   N2        1.0  0.4208827973035804  0.5787337658478034  0.5648608875292104  1.0000
  C   C6        1.0  0.5823988567933887  0.5385863641840585  0.8278763309682188  1.0000
  C   C7        1.0  0.6695296935629762  0.5281450673124097  0.8962780884047622  1.0000
  C   C8        1.0  0.7577782209817991  0.538388992493054  0.8291686442405204  1.0000
  O   O1        1.0  0.844629301316612  0.5279298708202169  0.8976887810986333  1.0000
  H   H1        1.0  0.6710965786619209  0.5857630912160299  0.5188101373634297  1.0000
  H   H2        1.0  0.5147873397163045  0.5304715554444202  0.881038211125042  1.0000
  H   H3        1.0  0.6684154045774545  0.5120836909695607  0.0015001224666183499  1.0000
  H   H4        1.0  0.8460561756813519  0.5128979166005808  0.9961660589058011  1.0000
  C   C9        1.0  0.16768029661920503  0.15512411480620503  0.565654289860033  1.0000
  C   C10       1.0  0.14545777981172892  0.2384317177201036  0.44956192617028234  1.0000
  C   C11       1.0  0.13225188560688306  0.17338164976182457  0.33272990399945374  1.0000
  C   C12       1.0  0.14131913704553356  0.023646508509247655  0.33114397070456864  1.0000
  C   C13       1.0  0.1617558619122388  0.9390193851692021  0.4456420663683983  1.0000
  C   C14       1.0  0.1736100017472997  0.002306460223153507  0.5642482574208421  1.0000
  N   N3        1.0  0.11062270562318166  0.2597887813439257  0.21536133417880166  1.0000
  H   H5        1.0  0.27636458387161356  0.2347900491167907  0.8497496223884212  1.0000
  H   H6        1.0  0.14058846738157404  0.3550241740027149  0.4490648701437998  1.0000
  H   H7        1.0  0.13161560785725238  0.9721587845300547  0.2412533619920147  1.0000
  H   H8        1.0  0.16601182372025977  0.8228555899463189  0.44192241342907446  1.0000
  H   H9        1.0  0.24289906694207875  0.7052437297814649  0.7575352496085793  1.0000
  H   H10       1.0  0.10396896894976715  0.3718623384944175  0.2153214207078129  1.0000
  H   H11       1.0  0.10101009095469028  0.21231826978444523  0.1276057816606615  1.0000
  C   C15       1.0  0.17064517089516507  0.5787152770355153  0.18370279960947178  1.0000
  C   C16       1.0  0.13908350077662823  0.7225642055772408  0.1722778067405894  1.0000
  C   C17       1.0  0.12312894974279165  0.7939261207661923  0.049617943227999284  1.0000
  C   C18       1.0  0.13908341265460367  0.722564054150445  0.9371266373321551  1.0000
  C   C19       1.0  0.17064510818698242  0.578715267311267  0.9461997032763678  1.0000
  C   C20       1.0  0.18624187224088007  0.5074811579240257  0.07002662799922965  1.0000
  S   S1        1.0  0.0830033348105863  0.9778212121963235  0.036515435510497074  1.0000
  C   C21       1.0  0.9556210598645891  0.9274162582630738  0.040154257800544706  1.0000
  H   H12       1.0  0.1825032237375186  0.5244870943358293  0.5153227339493627  1.0000
  H   H13       1.0  0.1265458895907028  0.7797014103761353  0.25830641005850397  1.0000
  H   H14       1.0  0.12654569478964023  0.7797012025749144  0.8429560974867867  1.0000
  H   H15       1.0  0.2105692083193793  0.3965145396960603  0.0779328343043386  1.0000
  H   H16       1.0  0.18250142034249223  0.5244863453467097  0.6223071502874995  1.0000
  H   H17       1.0  0.9380473040562951  0.863244400586142  0.9566202418391794  1.0000
  H   H18       1.0  0.9380477278727393  0.8632458584131699  0.13285493131302184  1.0000
  H   H19       1.0  0.9116221961120645  0.02697850362474163  0.03306765047937122  1.0000
  Zn  Zn1       1.0  0.0648273157899486  0.5787114884868868  0.5649889922872497  1.0000
  Zn  Zn2       1.0  0.27645371656509043  0.578718354464042  0.5649129348506233  1.0000
  C   C22       1.0  0.17060274619050514  0.5729687193811694  0.8020810130624086  1.0000
  C   C23       1.0  0.17068060985739342  0.5844629437035203  0.3278210376503774  1.0000
  C   C24       1.0  0.17248417904253355  0.8421709326011271  0.5593404696974886  1.0000
  C   C25       1.0  0.16879909266176907  0.315258997411231  0.5705616531343705  1.0000
  O   O2        1.0  0.25100357564347653  0.5863882256542505  0.3761595819170246  1.0000
  O   O3        1.0  0.2508993142745156  0.5710475603441394  0.7536843710393359  1.0000
  O   O4        1.0  0.252417512464131  0.7884317520107526  0.5576696627423143  1.0000
  O   O5        1.0  0.24948530531233917  0.3690040443041964  0.5721741928789612  1.0000
  O   O6        1.0  0.09179565482500651  0.7884257986459602  0.5577277342780349  1.0000
  O   O7        1.0  0.09027746876129372  0.5710433400509061  0.7537423704751065  1.0000
  O   O8        1.0  0.09038172984276893  0.5863839550940377  0.37621602052867886  1.0000
  O   O9        1.0  0.08886345943546005  0.3689997634266522  0.5722307288448243  1.0000
