data_image0
_chemical_formula_structural       NC9NC3SH6C7NC2NH8C8NH11Zn2C4O8
_chemical_formula_sum              "N5 C33 S1 H25 Zn2 O8"
_cell_length_a       16.77567553997237
_cell_length_b       9.273995741505848
_cell_length_c       9.27565297233854
_cell_angle_alpha    86.07888925788727
_cell_angle_beta     90.8258093540976
_cell_angle_gamma    91.47570659476311

_space_group_name_H-M_alt    "P 1"
_space_group_IT_number       1

loop_
  _space_group_symop_operation_xyz
  'x, y, z'

loop_
  _atom_site_type_symbol
  _atom_site_label
  _atom_site_symmetry_multiplicity
  _atom_site_fract_x
  _atom_site_fract_y
  _atom_site_fract_z
  _atom_site_occupancy
  N   N1        1.0  0.7530264685158409  0.5884417834288415  0.4219278746274925  1.0000
  C   C1        1.0  0.6987836919304635  0.6435429027245951  0.46824970397491456  1.0000
  C   C2        1.0  0.6314675713228863  0.7119197454343695  0.5257315516306689  1.0000
  C   C3        1.0  0.6346042641489046  0.8104767626940452  0.6315019637859557  1.0000
  C   C4        1.0  0.559388882397664  0.8589990760690678  0.6666091313566185  1.0000
  C   C5        1.0  0.49671259129058337  0.79843793075062  0.5880679677643619  1.0000
  C   C6        1.0  0.4104369044438949  0.8274689924082861  0.6001903918051856  1.0000
  C   C7        1.0  0.3528450715526403  0.7386326191406974  0.5352558023878546  1.0000
  C   C8        1.0  0.2714014650229356  0.7654227550528471  0.5461994001359516  1.0000
  C   C9        1.0  0.21311880882982273  0.6736119340422506  0.4797080470001103  1.0000
  N   N2        1.0  0.1662766923262107  0.5998091927486096  0.42625882208961685  1.0000
  C   C10       1.0  0.24672107535319293  0.8813962762673033  0.6218996900700022  1.0000
  C   C11       1.0  0.30322007825537417  0.9704055267772266  0.6863223960493237  1.0000
  C   C12       1.0  0.3845097021490177  0.9440210677530037  0.6757068770087047  1.0000
  S   S1        1.0  0.5361788887446738  0.6842877337373132  0.47553351311918557  1.0000
  H   H1        1.0  0.6894233078796351  0.8462103218677997  0.6823988506397085  1.0000
  H   H2        1.0  0.5518971363506037  0.9349701166580808  0.7483768478922815  1.0000
  H   H3        1.0  0.3708839667123445  0.6479409666084037  0.47679603178466956  1.0000
  H   H4        1.0  0.18389735075411176  0.9030696680314558  0.6309354312988311  1.0000
  H   H5        1.0  0.28399519119471583  0.06041557489625447  0.7444279449768019  1.0000
  H   H6        1.0  0.4265674326607286  0.016153784026331056  0.7255815118078093  1.0000
  C   C13       1.0  0.957266159016463  0.17056389243553438  0.4230154182894783  1.0000
  C   C14       1.0  0.9707165627723068  0.2533026869705894  0.29280494601623763  1.0000
  C   C15       1.0  0.9913249487634728  0.1879236980437673  0.16807583830228623  1.0000
  C   C16       1.0  0.9993495248546849  0.037710586188936204  0.16999730705321325  1.0000
  C   C17       1.0  0.98421965447399  0.9536400514795527  0.2989961361468969  1.0000
  C   C18       1.0  0.9620446233564683  0.01767625275815132  0.4251838019761423  1.0000
  C   C19       1.0  0.02215637818478489  0.9704492608011749  0.03629283181065346  1.0000
  N   N3        1.0  0.02450830373684098  0.04392693145539006  0.905342754646786  1.0000
  C   C20       1.0  0.048043802426444904  0.9460835952444729  0.814936583256745  1.0000
  C   C21       1.0  0.05974467975992683  0.816000205082551  0.8915779680986314  1.0000
  N   N4        1.0  0.0434982971598168  0.8314795531751832  0.03077183936479289  1.0000
  H   H7        1.0  0.8934760705169891  0.43479135256167245  0.6297923746264362  1.0000
  H   H8        1.0  0.9672273140003529  0.3700196491407368  0.2881195089127093  1.0000
  H   H9        1.0  0.002165814018197042  0.25577025988678526  0.07027390752425933  1.0000
  H   H10       1.0  0.9869282130901285  0.8371657469302547  0.30102201598216194  1.0000
  H   H11       1.0  0.9640996833925152  0.7212970886830541  0.6649019878717597  1.0000
  H   H12       1.0  0.05638098620563836  0.9685698283188015  0.700105083196669  1.0000
  H   H13       1.0  0.07914856222979405  0.7171381225736493  0.8490522475091993  1.0000
  H   H14       1.0  0.048187629697359124  0.7516284748471564  0.11507495789878354  1.0000
  C   C22       1.0  0.9578643553972406  0.5912600938130681  0.000803087552222696  1.0000
  C   C23       1.0  0.9066751237412377  0.6841864317039661  0.06664967013431355  1.0000
  C   C24       1.0  0.8618295296477616  0.7857026069218471  0.9837366098656526  1.0000
  C   C25       1.0  0.867088213748165  0.7928732475271396  0.8330239184682044  1.0000
  C   C26       1.0  0.9165220966720794  0.6999628198443963  0.765751022471524  1.0000
  C   C27       1.0  0.9614464502160808  0.5969801148022633  0.8473961524969091  1.0000
  C   C28       1.0  0.8064196042120068  0.8828408684422475  0.055946380838828524  1.0000
  C   C29       1.0  0.7240330800779672  0.8101119032223322  0.07569407256927185  1.0000
  N   N5        1.0  0.6704999841093253  0.906098401484458  0.1435846691858953  1.0000
  H   H15       1.0  0.015103194036742542  0.37856934779130813  0.29747432277039915  1.0000
  H   H16       1.0  0.9028594884413478  0.6800691497056536  0.1834271767953064  1.0000
  H   H17       1.0  0.832168217610435  0.8695913469135408  0.7672690234504862  1.0000
  H   H18       1.0  0.917996699831512  0.7061970857981739  0.6487620938577112  1.0000
  H   H19       1.0  0.07005518395971944  0.46788150392831257  0.5777239163679031  1.0000
  H   H20       1.0  0.8315348292697765  0.9088718372705076  0.16298727488970965  1.0000
  H   H21       1.0  0.8006231916427468  0.9867995264877806  0.9898365386660468  1.0000
  H   H22       1.0  0.6989663603745325  0.7852409903962372  0.9682394305197626  1.0000
  H   H23       1.0  0.7290792814291492  0.7069623095431035  0.14368130298604997  1.0000
  H   H24       1.0  0.6139055137390523  0.8561128556527596  0.14727324692016008  1.0000
  H   H25       1.0  0.689213120899137  0.9138313549007695  0.2509187701273122  1.0000
  Zn  Zn1       1.0  0.8722815728205152  0.5917183775526325  0.4231860156095808  1.0000
  Zn  Zn2       1.0  0.04702156677014658  0.59652091214567  0.42501248862351704  1.0000
  C   C30       1.0  0.9607351448162263  0.5901527809453657  0.6873572149578568  1.0000
  C   C31       1.0  0.9585699137942546  0.5980883820610046  0.16084145535890282  1.0000
  C   C32       1.0  0.9611129822319119  0.8575151042416455  0.41902978234243426  1.0000
  C   C33       1.0  0.9581920073019495  0.3307243247181926  0.4291689597658955  1.0000
  O   O1        1.0  0.025119587180730374  0.6021962622516454  0.21524491444588167  1.0000
  O   O2        1.0  0.026809075735654497  0.5896888224698444  0.6343395888948316  1.0000
  O   O3        1.0  0.027113296639222906  0.8055872653479189  0.4176632830918412  1.0000
  O   O4        1.0  0.0248153062511376  0.38629782732259654  0.4319211115720132  1.0000
  O   O5        1.0  0.894487773709317  0.8019414607383561  0.41627739203022074  1.0000
  O   O6        1.0  0.894183562252161  0.5860447502694638  0.632953625410777  1.0000
  O   O7        1.0  0.8924940661338868  0.5985521280804196  0.2138572177729557  1.0000
  O   O8        1.0  0.892189785600111  0.38265368356499474  0.4305335229450826  1.0000
