data_image0
_chemical_formula_structural       NC5OC5NC4H8C9H8C6SCH8Zn2C4O8
_chemical_formula_sum              "N2 C34 O9 H24 S1 Zn2"
_cell_length_a       19.189071930511275
_cell_length_b       9.275152443626249
_cell_length_c       10.302812801239593
_cell_angle_alpha    85.3632325581603
_cell_angle_beta     89.97791177301549
_cell_angle_gamma    90.56463589314393

_space_group_name_H-M_alt    "P 1"
_space_group_IT_number       1

loop_
  _space_group_symop_operation_xyz
  'x, y, z'

loop_
  _atom_site_type_symbol
  _atom_site_label
  _atom_site_symmetry_multiplicity
  _atom_site_fract_x
  _atom_site_fract_y
  _atom_site_fract_z
  _atom_site_occupancy
  N   N1        1.0  0.6638554191411212  0.578621289171783  0.5625785413980702  1.0000
  C   C1        1.0  0.6096463736628639  0.629850169469975  0.5441334241772718  1.0000
  C   C2        1.0  0.5422173021452746  0.6935703598302703  0.5211904727839897  1.0000
  C   C3        1.0  0.5330425512147093  0.801235337782343  0.4194697961374858  1.0000
  C   C4        1.0  0.46754287745487366  0.8632124905840339  0.3973089721915219  1.0000
  C   C5        1.0  0.4105586245190701  0.8174096556457089  0.4755143185936574  1.0000
  O   O1        1.0  0.345907490987246  0.8834208466678897  0.45107674830688305  1.0000
  C   C6        1.0  0.2806165695941377  0.8171990968677469  0.4749509383518049  1.0000
  C   C7        1.0  0.22427102933986076  0.903386548242015  0.5049333667992315  1.0000
  C   C8        1.0  0.15817313809873743  0.841726502856817  0.5279436084261664  1.0000
  C   C9        1.0  0.1477580642205611  0.6930766746632888  0.5198682806923443  1.0000
  C   C10       1.0  0.07971331553332099  0.6295781622595646  0.5434048397338409  1.0000
  N   N2        1.0  0.0250093387141054  0.5785275669048979  0.5623276266122832  1.0000
  C   C11       1.0  0.20362871034788704  0.6065467845256727  0.48797011389695033  1.0000
  C   C12       1.0  0.2697179535576149  0.6682506415028802  0.4650033581318415  1.0000
  C   C13       1.0  0.420220391635592  0.7107473416694983  0.5788497651041301  1.0000
  C   C14       1.0  0.48571113014194783  0.6487656294888009  0.60107196254763  1.0000
  H   H1        1.0  0.5764658692983428  0.8373506696804178  0.3574851798259584  1.0000
  H   H2        1.0  0.4609112170813947  0.9465664012531279  0.31860427527238605  1.0000
  H   H3        1.0  0.231862756055312  0.018439725833224955  0.5111496844654315  1.0000
  H   H4        1.0  0.1152543368833316  0.909894977451514  0.5518280852404938  1.0000
  H   H5        1.0  0.196031289146021  0.4916637360693312  0.4801788948593644  1.0000
  H   H6        1.0  0.31192877448787043  0.6003140002777034  0.4377054746011452  1.0000
  H   H7        1.0  0.3775177277676026  0.6770506487479329  0.6432793422663922  1.0000
  H   H8        1.0  0.4923549692170025  0.566575678287006  0.6808641882513964  1.0000
  C   C15       1.0  0.8423799725231937  0.15494268674330613  0.5637799674538218  1.0000
  C   C16       1.0  0.8172407137401164  0.23768860726922036  0.45350040064805425  1.0000
  C   C17       1.0  0.7985792303730428  0.17225210166101904  0.34115129744668254  1.0000
  C   C18       1.0  0.8047639855246135  0.022908558159593587  0.3368572288332128  1.0000
  C   C19       1.0  0.8285405136808489  0.9384748442900628  0.4462055896377257  1.0000
  C   C20       1.0  0.8464914270380296  0.0021951388936323163  0.5611374097332844  1.0000
  C   C21       1.0  0.7858835920800276  0.9557639462001138  0.22051235764584315  1.0000
  C   C22       1.0  0.770075674477804  0.8995126920038015  0.1230917686000845  1.0000
  C   C23       1.0  0.7508958911363073  0.8312497448453705  0.004888969193355577  1.0000
  H   H9        1.0  0.9425150713258057  0.2365681608406791  0.8229962243219672  1.0000
  H   H10       1.0  0.8135697857643491  0.3542070454750219  0.4530945673950923  1.0000
  H   H11       1.0  0.7799472431669958  0.23849669889325797  0.2570796951285159  1.0000
  H   H12       1.0  0.8314745959759116  0.8221640532477746  0.44258177191535747  1.0000
  H   H13       1.0  0.9116754240382933  0.7068788315095257  0.7384349228177156  1.0000
  H   H14       1.0  0.7636355282304811  0.7145246111452668  0.017009041980803104  1.0000
  H   H15       1.0  0.6941763323506359  0.8438470229191735  0.9871547365050518  1.0000
  H   H16       1.0  0.7803254878415805  0.8835906439784837  0.9208313809848727  1.0000
  C   C24       1.0  0.8444357179044826  0.5785689039229756  0.18121024461579902  1.0000
  C   C25       1.0  0.8216321052679884  0.7224375173847604  0.1695805956514549  1.0000
  C   C26       1.0  0.8101050551858984  0.7938092690384417  0.04681925271945553  1.0000
  C   C27       1.0  0.8216320417082984  0.7224373659662311  0.9344294264781756  1.0000
  C   C28       1.0  0.8444356726556325  0.578568894212887  0.9437071483070654  1.0000
  C   C29       1.0  0.8557045152601668  0.5073250446251241  0.06763542419626732  1.0000
  S   S1        1.0  0.7811137089171751  0.9777294723222578  0.033455078455055125  1.0000
  C   C30       1.0  0.6892035092667824  0.9273506938288772  0.03718810714076116  1.0000
  H   H17       1.0  0.8530033121411995  0.5243333099724614  0.5129073367404147  1.0000
  H   H18       1.0  0.8125735607441535  0.7795825413828923  0.2555279091835638  1.0000
  H   H19       1.0  0.8125734202150807  0.7795823336106641  0.8401775969465488  1.0000
  H   H20       1.0  0.8732812691475306  0.39634324593790426  0.07569950762263433  1.0000
  H   H21       1.0  0.8530020109436359  0.5243325613509282  0.619891754463874  1.0000
  H   H22       1.0  0.6765348186394773  0.8631776164990385  0.9537505326668816  1.0000
  H   H23       1.0  0.6765351241809519  0.8631790743479006  0.12998521994581666  1.0000
  H   H24       1.0  0.6574338633623864  0.026931856234815314  0.029963450746778086  1.0000
  Zn  Zn1       1.0  0.7680766290797022  0.5785903944736053  0.5625136364901062  1.0000
  Zn  Zn2       1.0  0.920788089099922  0.5785467044161883  0.5624031832101244  1.0000
  C   C31       1.0  0.8444062398233654  0.5728218712293855  0.7995968455449316  1.0000
  C   C32       1.0  0.8444601547935494  0.58431704739272  0.3253200946982288  1.0000
  C   C33       1.0  0.8457106833947083  0.8420463633727929  0.5564634011897973  1.0000
  C   C34       1.0  0.8431556507017164  0.31509082205080907  0.5684536137135943  1.0000
  O   O2        1.0  0.9024215287110494  0.5862233030900303  0.37364278003087525  1.0000
  O   O3        1.0  0.9023493252774287  0.5708813674952669  0.751189958394856  1.0000
  O   O4        1.0  0.903401898721255  0.7882835499329544  0.5548579777552871  1.0000
  O   O5        1.0  0.9013689032072298  0.36882113098700714  0.5699746633320364  1.0000
  O   O6        1.0  0.7874957628594754  0.7883159679192662  0.5549421563990531  1.0000
  O   O7        1.0  0.7864431978232196  0.5709155186965618  0.7512740624092502  1.0000
  O   O8        1.0  0.7865154010593242  0.5862574040201702  0.37372532329450703  1.0000
  O   O9        1.0  0.7854627755025788  0.36885522159896267  0.570057303964935  1.0000
