data_image0
_chemical_formula_structural       NC5NC3OH4C9H8C6NH7Zn2C4O8
_chemical_formula_sum              "N3 C27 O9 H19 Zn2"
_cell_length_a       13.84702359539666
_cell_length_b       9.275152443626249
_cell_length_c       9.274774538082514
_cell_angle_alpha    84.86265069898316
_cell_angle_beta     90.33539993850698
_cell_angle_gamma    90.5743638874884

_space_group_name_H-M_alt    "P 1"
_space_group_IT_number       1

loop_
  _space_group_symop_operation_xyz
  'x, y, z'

loop_
  _atom_site_type_symbol
  _atom_site_label
  _atom_site_symmetry_multiplicity
  _atom_site_fract_x
  _atom_site_fract_y
  _atom_site_fract_z
  _atom_site_occupancy
  N   N1        1.0  0.9135253477459848  0.5927509069267667  0.4022053358187512  1.0000
  C   C1        1.0  0.8415775710050977  0.5835286096937793  0.4653743917958979  1.0000
  C   C2        1.0  0.7519755846487998  0.5720449020656908  0.5440331764174571  1.0000
  C   C3        1.0  0.6641552865633855  0.5831388978074368  0.46804314442598244  1.0000
  C   C4        1.0  0.5765272942529532  0.5721738040096982  0.5431498792824339  1.0000
  C   C5        1.0  0.48643311081974844  0.583595927615995  0.4649130198016296  1.0000
  N   N2        1.0  0.4140090363556138  0.5927784360498953  0.40201682193383115  1.0000
  C   C6        1.0  0.5767149484849545  0.5500816312560355  0.6944724123143613  1.0000
  C   C7        1.0  0.6641552272784107  0.5389773175703245  0.7705305943179717  1.0000
  C   C8        1.0  0.7521001589856988  0.5498717331890397  0.6959093784587489  1.0000
  O   O1        1.0  0.8392612168110244  0.5387484472770345  0.7720991900682654  1.0000
  H   H1        1.0  0.6640144892340426  0.6002541303666276  0.3508114662473536  1.0000
  H   H2        1.0  0.5093439298555277  0.5414515255332402  0.7535848692019123  1.0000
  H   H3        1.0  0.6635169510812616  0.5218960262773711  0.8875304620375986  1.0000
  H   H4        1.0  0.8411335914688743  0.5227619548755815  0.8815993399114037  1.0000
  C   C9        1.0  0.1609289021320768  0.16911939041467572  0.40358563163308636  1.0000
  C   C10       1.0  0.12559690881205388  0.25292432292413025  0.2809831246653889  1.0000
  C   C11       1.0  0.09923250098947212  0.18856898857727877  0.156081565237284  1.0000
  C   C12       1.0  0.10778405260139601  0.03926903688978234  0.15130945883836033  1.0000
  C   C13       1.0  0.14122340983255488  0.9537848750233845  0.27287641632369675  1.0000
  C   C14       1.0  0.16661468768651444  0.01639876927586425  0.40064896724701193  1.0000
  C   C15       1.0  0.08109837526742238  0.9732441950269664  0.02196580659987069  1.0000
  C   C16       1.0  0.058755316230651125  0.9179305732062961  0.9136607767388774  1.0000
  C   C17       1.0  0.03164642079632163  0.8508052786117523  0.782251617379409  1.0000
  H   H5        1.0  0.30085704192167634  0.24826911581701827  0.6917776955006101  1.0000
  H   H6        1.0  0.12050794201077952  0.3694454814657975  0.28053104675865836  1.0000
  H   H7        1.0  0.07303568240554359  0.25562109861823745  0.06261570572801012  1.0000
  H   H8        1.0  0.14527320348322914  0.83751012005937  0.26884860453836934  1.0000
  H   H9        1.0  0.25774073262264086  0.7193880237153166  0.5977643886415631  1.0000
  H   H10       1.0  0.04935523840864752  0.7339670373091216  0.7957285175696107  1.0000
  H   H11       1.0  0.9529653548516727  0.8635555336887456  0.7625225271638252  1.0000
  H   H12       1.0  0.07205309695061946  0.9039693614461163  0.6888133677739323  1.0000
  C   C18       1.0  0.16206341651608655  0.5964487731702195  0.9782888672927085  1.0000
  C   C19       1.0  0.23106414248269222  0.6815863808133904  0.04470452446469086  1.0000
  C   C20       1.0  0.30431765585882975  0.7548404749461468  0.9636583115427929  1.0000
  C   C21       1.0  0.30916197962913405  0.7432892094444778  0.8147190790525061  1.0000
  C   C22       1.0  0.24049241383673636  0.6613296445893517  0.7465897276966267  1.0000
  C   C23       1.0  0.16548015681976347  0.5890693131023652  0.8259457652256881  1.0000
  N   N3        1.0  0.374425694213987  0.8397774387120416  0.033079491788600805  1.0000
  H   H13       1.0  0.01581864077615802  0.3144269967010349  0.10524101569305033  1.0000
  H   H14       1.0  0.2293717051022697  0.6884284068536226  0.16070159429438746  1.0000
  H   H15       1.0  0.3657137182240984  0.7990307337941277  0.7509739554681869  1.0000
  H   H16       1.0  0.24477184117173412  0.6573169651925905  0.6304289642460783  1.0000
  H   H17       1.0  0.06404270807085433  0.4035094277263225  0.5605448558446517  1.0000
  H   H18       1.0  0.3716820428191294  0.8488241268684329  0.14441911532897955  1.0000
  H   H19       1.0  0.42957592764812835  0.8943844083366833  0.9736275100701652  1.0000
  Zn  Zn1       1.0  0.05795413513742799  0.5927549167041049  0.40215927027584053  1.0000
  Zn  Zn2       1.0  0.26958019316764203  0.5927625194372417  0.4020747071816253  1.0000
  C   C24       1.0  0.16479360375473617  0.5847170180652699  0.6657403831279787  1.0000
  C   C25       1.0  0.16274304828644381  0.6008022371931288  0.138493728754975  1.0000
  C   C26       1.0  0.1655117936077506  0.856294971790337  0.3954527434912236  1.0000
  C   C27       1.0  0.1620247748990844  0.32922254952709595  0.4087814513752899  1.0000
  O   O2        1.0  0.24328208280564212  0.6022598908742112  0.1922278743116841  1.0000
  O   O3        1.0  0.2448738416087637  0.5832640499709072  0.6119416444434969  1.0000
  O   O4        1.0  0.24545271241646208  0.8025666690721811  0.39368245834044324  1.0000
  O   O5        1.0  0.242703139417362  0.3829572830325154  0.41048695219199227  1.0000
  O   O6        1.0  0.08483111667010076  0.8025601531078739  0.39374702528673367  1.0000
  O   O7        1.0  0.08425225717913976  0.5832592679466067  0.6120061284274878  1.0000
  O   O8        1.0  0.08266049110845808  0.6022550736835539  0.19229062323136814  1.0000
  O   O9        1.0  0.08208154808315207  0.3829524545813223  0.4105498093556821  1.0000
