data_image0
_chemical_formula_structural       NC5OC5NC4H8C9H8C6NCOH5Zn2C4O8
_chemical_formula_sum              "N3 C34 O10 H21 Zn2"
_cell_length_a       19.189071930511275
_cell_length_b       9.275152443626249
_cell_length_c       9.273733555595832
_cell_angle_alpha    85.97646638804791
_cell_angle_beta     89.98918376362916
_cell_angle_gamma    90.56463589314393

_space_group_name_H-M_alt    "P 1"
_space_group_IT_number       1

loop_
  _space_group_symop_operation_xyz
  'x, y, z'

loop_
  _atom_site_type_symbol
  _atom_site_label
  _atom_site_symmetry_multiplicity
  _atom_site_fract_x
  _atom_site_fract_y
  _atom_site_fract_z
  _atom_site_occupancy
  N   N1        1.0  0.663621845716233  0.561485371119306  0.4043662384248343  1.0000
  C   C1        1.0  0.6094098030034651  0.6124943618261243  0.38389092716689377  1.0000
  C   C2        1.0  0.5419770033769751  0.6759410426095281  0.358422719763823  1.0000
  C   C3        1.0  0.5327857233715975  0.7823933788768497  0.2455059792100138  1.0000
  C   C4        1.0  0.4672824485944564  0.8441063460697609  0.22090598547755877  1.0000
  C   C5        1.0  0.4103109036160125  0.7992358197450251  0.307719139899435  1.0000
  O   O1        1.0  0.3456557991075805  0.8649556834050529  0.2805918057643455  1.0000
  C   C6        1.0  0.2803687571447547  0.7990185447478229  0.30709375022744667  1.0000
  C   C7        1.0  0.2240280888773657  0.885563425346355  0.3403762470194853  1.0000
  C   C8        1.0  0.1579339366794521  0.8241776917244377  0.3659191510732831  1.0000
  C   C9        1.0  0.1475175506030026  0.6754315952071932  0.3569549982907001  1.0000
  C   C10       1.0  0.07947662648278321  0.6122136689492779  0.38308214980438815  1.0000
  N   N2        1.0  0.0247757245168844  0.5613886576244957  0.4040877062649837  1.0000
  C   C11       1.0  0.2033830134460375  0.5885214377729129  0.32154590406402095  1.0000
  C   C12       1.0  0.2694685246787792  0.6499515013944088  0.29605127221936883  1.0000
  C   C13       1.0  0.4199894621989549  0.6938053975933884  0.4224283827821222  1.0000
  C   C14       1.0  0.48548381169548627  0.6320886026727328  0.44709650519329397  1.0000
  H   H1        1.0  0.5761989692811754  0.8177697741886691  0.1766989178620126  1.0000
  H   H2        1.0  0.4606379991217858  0.9265219952229428  0.13353851865202526  1.0000
  H   H3        1.0  0.23162082571173442  0.000690709463162964  0.3472767745450114  1.0000
  H   H4        1.0  0.11501901656587481  0.8926309000936085  0.39243251453702843  1.0000
  H   H5        1.0  0.1957843262120666  0.4735455079350129  0.3128971308974575  1.0000
  H   H6        1.0  0.3116749098465725  0.5816894341834238  0.26574879946827323  1.0000
  H   H7        1.0  0.3772972677982963  0.6608767883454052  0.49394951386646624  1.0000
  H   H8        1.0  0.4921406165874385  0.5508498777328681  0.5356712015582623  1.0000
  C   C15       1.0  0.8421465943237191  0.13782109123924724  0.40569990153743163  1.0000
  C   C16       1.0  0.8169894156912058  0.2192523370687889  0.28328222163280925  1.0000
  C   C17       1.0  0.7983096761859196  0.15247648522068902  0.15856721819522157  1.0000
  C   C18       1.0  0.8044937335739311  0.003081750882065972  0.15380051542118875  1.0000
  C   C19       1.0  0.8282880302635264  0.9199516105321215  0.2751844945098876  1.0000
  C   C20       1.0  0.8462576194368275  0.9850420406926594  0.40276648608675253  1.0000
  C   C21       1.0  0.7855944346998567  0.9345501579737752  0.024649942816517667  1.0000
  C   C22       1.0  0.769770686764433  0.877137524684002  0.9165065865143623  1.0000
  C   C23       1.0  0.7505716960898864  0.807465447675668  0.7852935895764164  1.0000
  H   H9        1.0  0.9423238144043605  0.2225367575060644  0.6934472483804685  1.0000
  H   H10       1.0  0.8133184217696698  0.33576593721869236  0.28283171963416365  1.0000
  H   H11       1.0  0.7796640277867886  0.21771884050138104  0.06524212815582398  1.0000
  H   H12       1.0  0.831221523707274  0.8035976189078774  0.2711618149617265  1.0000
  H   H13       1.0  0.9114704263502228  0.6918393483773563  0.5995785595589201  1.0000
  H   H14       1.0  0.7633133026321257  0.6908848008780194  0.7987476793401864  1.0000
  H   H15       1.0  0.6938492555847011  0.8198513108187621  0.7656074075984383  1.0000
  H   H16       1.0  0.7799876338792947  0.8588042719235001  0.6919840561341566  1.0000
  C   C24       1.0  0.844140174137709  0.5568865838098047  0.9810219740835499  1.0000
  C   C25       1.0  0.7800499995728191  0.5486240111787617  0.05505150852348594  1.0000
  C   C26       1.0  0.7166503067369767  0.5520516966488609  0.9801391302439955  1.0000
  C   C27       1.0  0.7173449661801892  0.5684310409143937  0.8287342091102858  1.0000
  C   C28       1.0  0.7803768382353201  0.5745413115708562  0.7535089434069082  1.0000
  C   C29       1.0  0.844264031355376  0.5659764943386272  0.8274444724630485  1.0000
  N   N3        1.0  0.6523692173568413  0.547009371614446  0.060220697858945904  1.0000
  C   C30       1.0  0.589262591943578  0.4805978749523585  0.013716702388272934  1.0000
  O   O2        1.0  0.5885257092040367  0.40425691125930374  0.9066304738168632  1.0000
  H   H17       1.0  0.00884375349223077  0.6570094207006892  0.07686193917295858  1.0000
  H   H18       1.0  0.6692633453333857  0.5780485337762755  0.7681234651740011  1.0000
  H   H19       1.0  0.9557145975675567  0.627313622994832  0.5420400222395281  1.0000
  H   H20       1.0  0.6523057621327778  0.5853656299040395  0.1635070856012535  1.0000
  H   H21       1.0  0.5416903754021187  0.49270865574607425  0.0741323950795707  1.0000
  Zn  Zn1       1.0  0.7678430451081076  0.5614537026708986  0.40429418964483355  1.0000
  Zn  Zn2       1.0  0.9205544871802508  0.5614086958679001  0.40417157913170865  1.0000
  C   C31       1.0  0.8442111806259708  0.5585115171146757  0.6674723761166037  1.0000
  C   C32       1.0  0.8441880281192661  0.5643527025934623  0.14099352647063657  1.0000
  C   C33       1.0  0.8454761162917074  0.8248375449605352  0.3975780246308256  1.0000
  C   C34       1.0  0.8429230319451715  0.29802494243914524  0.41088796083425455  1.0000
  O   O3        1.0  0.9021572542189115  0.5668350270359417  0.19463493254908637  1.0000
  O   O4        1.0  0.9021464002155359  0.5559939408411042  0.61373750040065  1.0000
  O   O5        1.0  0.9031670707453918  0.7710555928023701  0.39579589746248595  1.0000
  O   O6        1.0  0.9011365316132458  0.3517733842489408  0.41257642743512024  1.0000
  O   O7        1.0  0.787260948562199  0.7710890143067053  0.3958893413756772  1.0000
  O   O8        1.0  0.7862402864277869  0.5560290946707445  0.6138308614702568  1.0000
  O   O9        1.0  0.7862511399800325  0.5668701119882646  0.19472656108117326  1.0000
  O   O10       1.0  0.7852304173372626  0.35180846004384647  0.4126681640535925  1.0000
