data_image0
_chemical_formula_structural       NC5NC3BrH3C7NH5C9H8Zn2C4O8
_chemical_formula_sum              "N3 C28 Br1 H16 Zn2 O8"
_cell_length_a       13.839083392302014
_cell_length_b       9.275154477615127
_cell_length_c       9.275155815604963
_cell_angle_alpha    86.28252252333478
_cell_angle_beta     90.35828541235293
_cell_angle_gamma    89.45968127068964

_space_group_name_H-M_alt    "P 1"
_space_group_IT_number       1

loop_
  _space_group_symop_operation_xyz
  'x, y, z'

loop_
  _atom_site_type_symbol
  _atom_site_label
  _atom_site_symmetry_multiplicity
  _atom_site_fract_x
  _atom_site_fract_y
  _atom_site_fract_z
  _atom_site_occupancy
  N   N1        1.0  0.892911034970906  0.5648575128869668  0.4164270380913455  1.0000
  C   C1        1.0  0.8213389902932889  0.5012436717332707  0.418638838816344  1.0000
  C   C2        1.0  0.7321653828820232  0.422086057544933  0.4213909259561214  1.0000
  C   C3        1.0  0.644093383540119  0.4982528709866884  0.4187430147684525  1.0000
  C   C4        1.0  0.5565522498594901  0.4235581384431459  0.42133968960934  1.0000
  C   C5        1.0  0.4662619208457223  0.5020753224640859  0.4186099077740799  1.0000
  N   N2        1.0  0.3936801846708308  0.5651969812569131  0.4164151801529692  1.0000
  C   C6        1.0  0.5570193901478345  0.2723852256659969  0.42659514819340666  1.0000
  C   C7        1.0  0.6446471636483729  0.19609719656670643  0.4292471820508603  1.0000
  C   C8        1.0  0.732389156424577  0.270078115855511  0.42667534278600594  1.0000
  Br  Br1       1.0  0.8505368217167597  0.1600356850799065  0.4305010073742088  1.0000
  H   H1        1.0  0.6436762980670554  0.6153990823592115  0.41467027975781606  1.0000
  H   H2        1.0  0.48972303697907205  0.21355824302741766  0.4286399741534397  1.0000
  H   H3        1.0  0.6442993646475774  0.07920007986208423  0.43331087996476886  1.0000
  C   C9        1.0  0.14608952019556898  0.14162547051129337  0.41475322738498316  1.0000
  C   C10       1.0  0.1190421374886641  0.22369198238904664  0.2876761556621166  1.0000
  C   C11       1.0  0.08416293880258863  0.15659363925995362  0.16733076471725594  1.0000
  C   C12       1.0  0.07575914910429193  0.006513177042767991  0.17264512137319055  1.0000
  C   C13       1.0  0.10369014974346946  0.9232146467866315  0.2968255370111026  1.0000
  C   C14       1.0  0.14051107364606746  0.9884180372195401  0.4181014813683652  1.0000
  C   C15       1.0  0.05582369552441935  0.2422278993352187  0.03872210571810974  1.0000
  N   N3        1.0  0.03304679347347749  0.31106222738122424  0.9353536866806009  1.0000
  H   H4        1.0  0.16628503825945762  0.2213565619739517  0.7685351458776983  1.0000
  H   H5        1.0  0.12297068077817208  0.3406172219444772  0.2833995991680338  1.0000
  H   H6        1.0  0.048437423758039166  0.9535716386275344  0.08015214230251222  1.0000
  H   H7        1.0  0.09861564175602555  0.8067425187941312  0.29669881619856464  1.0000
  H   H8        1.0  0.15820490140080956  0.6917009229877686  0.6551453316550613  1.0000
  C   C16       1.0  0.14155386017478877  0.5613760892903712  0.99318172945501  1.0000
  C   C17       1.0  0.06550004122119102  0.6315794931372307  0.06127617181929579  1.0000
  C   C18       1.0  0.9958552494951834  0.7113696578142066  0.9803087096016361  1.0000
  C   C19       1.0  0.0009714541798795443  0.7226273494868543  0.8297712883610191  1.0000
  C   C20       1.0  0.07508589352635253  0.6516479646362812  0.7599654641385477  1.0000
  C   C21       1.0  0.14504670877246273  0.5686673504075805  0.8396728914032447  1.0000
  C   C22       1.0  0.929351251798498  0.8057846883544733  0.7465045728903177  1.0000
  C   C23       1.0  0.8693822106280532  0.8754176055195234  0.6767534201041183  1.0000
  C   C24       1.0  0.7966205577640719  0.9599053773494922  0.5921107131836663  1.0000
  H   H9        1.0  0.36660235018214493  0.44519984172138366  0.10567431896881785  1.0000
  H   H10       1.0  0.061185189247348504  0.6275797992705325  0.178052009378137  1.0000
  H   H11       1.0  0.9384765913292158  0.765523290819506  0.03533736230753436  1.0000
  H   H12       1.0  0.07682657988652042  0.6584290629728369  0.6428459336569086  1.0000
  H   H13       1.0  0.2952465839858234  0.4852719062665063  0.5657568234562591  1.0000
  H   H14       1.0  0.8162287795993591  0.9640613034982994  0.47612764128353247  1.0000
  H   H15       1.0  0.7249923679968282  0.9085135716657291  0.6069356845717975  1.0000
  H   H16       1.0  0.7934416917687054  0.07123564687403716  0.6290557028659158  1.0000
  Zn  Zn1       1.0  0.03742225715384806  0.5649516821658975  0.4164319304602521  1.0000
  Zn  Zn2       1.0  0.249169081287951  0.5650910960920363  0.4164220692654115  1.0000
  C   C25       1.0  0.1444221836892543  0.5615452801059873  0.6796452603578251  1.0000
  C   C26       1.0  0.14217145562043387  0.5684993201142716  0.15320888791640308  1.0000
  C   C27       1.0  0.14153684171166803  0.8283067225604335  0.41172511676847434  1.0000
  C   C28       1.0  0.1450567370724671  0.30173614600148224  0.4211291015011915  1.0000
  O   O1        1.0  0.22273558396303583  0.5709365581127905  0.20691169701876366  1.0000
  O   O2        1.0  0.22456900082996634  0.5592127627744037  0.625934547639319  1.0000
  O   O3        1.0  0.22223797362852604  0.774626013410862  0.4095871420896706  1.0000
  O   O4        1.0  0.22506653839576599  0.3555233168120695  0.42325899454554516  1.0000
  O   O5        1.0  0.06152472778719243  0.7745194613997939  0.4095950051759085  1.0000
  O   O6        1.0  0.06385574325534615  0.5591079423756082  0.6259423407259095  1.0000
  O   O7        1.0  0.06202231963342397  0.5708316725441158  0.2069177570544558  1.0000
  O   O8        1.0  0.06435327457602402  0.3554184218615868  0.42326516259989533  1.0000
