data_image0
_chemical_formula_structural       NC5NC3OH4C9H10C9H10Zn2C4O8
_chemical_formula_sum              "N2 C30 O9 H24 Zn2"
_cell_length_a       13.84702359539666
_cell_length_b       10.297183801781406
_cell_length_c       10.297187173949778
_cell_angle_alpha    85.54101213387429
_cell_angle_beta     89.95979786321969
_cell_angle_gamma    89.99848952151973

_space_group_name_H-M_alt    "P 1"
_space_group_IT_number       1

loop_
  _space_group_symop_operation_xyz
  'x, y, z'

loop_
  _atom_site_type_symbol
  _atom_site_label
  _atom_site_symmetry_multiplicity
  _atom_site_fract_x
  _atom_site_fract_y
  _atom_site_fract_z
  _atom_site_occupancy
  N   N1        1.0  0.909815652799905  0.4215495517540286  0.5662164571161696  1.0000
  C   C1        1.0  0.8376526215245913  0.41374719065826954  0.6230463349835407  1.0000
  C   C2        1.0  0.7477825979477445  0.40403160314458053  0.6938115071606512  1.0000
  C   C3        1.0  0.6602212436636292  0.4134174769096133  0.6254472711427761  1.0000
  C   C4        1.0  0.5723373178344405  0.4041406554057608  0.6930168510312993  1.0000
  C   C5        1.0  0.48250973377446343  0.4138041416378585  0.6226312627551207  1.0000
  N   N2        1.0  0.4102999837396476  0.42157284267517053  0.5660468611066087  1.0000
  C   C6        1.0  0.5720093262531614  0.3854499639868394  0.8291537765701938  1.0000
  C   C7        1.0  0.659190431498782  0.37605534084379405  0.8975793225760551  1.0000
  C   C8        1.0  0.7473896408949562  0.3852723774706413  0.8304465391501037  1.0000
  O   O1        1.0  0.8342910749830708  0.37586171654760014  0.8989905060513486  1.0000
  H   H1        1.0  0.6604799235474738  0.4278975226645209  0.5199800953359137  1.0000
  H   H2        1.0  0.5044368766525628  0.3781486134485621  0.8823341454287001  1.0000
  H   H3        1.0  0.6581534673422448  0.361604015851297  0.0028379509682743263  1.0000
  H   H4        1.0  0.8357903184488162  0.362336620530714  0.9975020323405552  1.0000
  C   C9        1.0  0.1600657490954649  0.040085656665894476  0.5663156945026575  1.0000
  C   C10       1.0  0.15729621821582795  0.04992868328118984  0.4296256714705646  1.0000
  C   C11       1.0  0.15587708317928928  0.9383550662540314  0.35959537550769016  1.0000
  C   C12       1.0  0.15728508203137204  0.8147575247098013  0.4290958813177592  1.0000
  C   C13       1.0  0.16005912320223065  0.803026739001072  0.5659587969130566  1.0000
  C   C14       1.0  0.16143043160006854  0.9161668224592371  0.6336752939831283  1.0000
  C   C15       1.0  0.15288137277615044  0.9584331893658555  0.21175546380000831  1.0000
  C   C16       1.0  0.09635785710263177  0.8597047430994106  0.13946430463816648  1.0000
  C   C17       1.0  0.20638075271642453  0.8600175664672708  0.1353005141101955  1.0000
  H   H5        1.0  0.16114210807246065  0.3638312772095489  0.6189867416243979  1.0000
  H   H6        1.0  0.15622722929227217  0.14515099996148484  0.37685578110768847  1.0000
  H   H7        1.0  0.15624343582882805  0.7271514548769448  0.37779140139415723  1.0000
  H   H8        1.0  0.16356669879410246  0.9078452778410157  0.7391345173089701  1.0000
  H   H9        1.0  0.1652856773806506  0.5736541373881779  0.8244543113435883  1.0000
  H   H10       1.0  0.1519193854023515  0.05914285905490324  0.16423711693351728  1.0000
  H   H11       1.0  0.06411252117170352  0.7760730114861655  0.19858977854035698  1.0000
  H   H12       1.0  0.06231836728349438  0.9005648159915793  0.04757141687661082  1.0000
  H   H13       1.0  0.24096841739253114  0.7765766580485324  0.19189738697354586  1.0000
  H   H14       1.0  0.23664480389012277  0.9010581033759802  0.040972875506544604  1.0000
  C   C18       1.0  0.16019009945285007  0.4215092448152715  0.18468408449905557  1.0000
  C   C19       1.0  0.06232187020647031  0.45718559306428136  0.18121865561844475  1.0000
  C   C20       1.0  0.012181091782262008  0.4754634199502714  0.06282681059224027  1.0000
  C   C21       1.0  0.0619424848609067  0.45732339380451437  0.9459959946574051  1.0000
  C   C22       1.0  0.15993476541890095  0.4216031724778737  0.947590436790688  1.0000
  C   C23       1.0  0.20841864691200376  0.40392808434701544  0.06732356476983736  1.0000
  C   C24       1.0  0.9063295480341866  0.5140496746367953  0.06851087171444935  1.0000
  C   C25       1.0  0.8387200837092113  0.46179642165026025  0.9682863827575279  1.0000
  C   C26       1.0  0.8674358800471024  0.605112570060861  0.9571101127849801  1.0000
  H   H15       1.0  0.19790446652247873  0.4077737927233476  0.5135568294198132  1.0000
  H   H16       1.0  0.024539438426858236  0.4709589463498278  0.27130316797159626  1.0000
  H   H17       1.0  0.02520846849460279  0.47071122061048043  0.8533950819021938  1.0000
  H   H18       1.0  0.28392585196469766  0.3764023860235395  0.06926986907087995  1.0000
  H   H19       1.0  0.345010927922856  0.35412110958907816  0.7433867494554378  1.0000
  H   H20       1.0  0.872307278285101  0.5264530477840121  0.16459388287258525  1.0000
  H   H21       1.0  0.8714257111858508  0.40316473152824694  0.8937777416905037  1.0000
  H   H22       1.0  0.7636629720890105  0.44421568835035  0.0034386230506915404  1.0000
  H   H23       1.0  0.9175852572448965  0.6335374410524353  0.8758134271447728  1.0000
  H   H24       1.0  0.8091610256314813  0.6712942066186862  0.9857278983866342  1.0000
  Zn  Zn1       1.0  0.05424461544944803  0.42155279628139547  0.5661750070423361  1.0000
  Zn  Zn2       1.0  0.26587099357403954  0.42155897016004173  0.5660989172753395  1.0000
  C   C27       1.0  0.15998091055992614  0.41641027227038835  0.8033872189818541  1.0000
  C   C28       1.0  0.16013700936008668  0.4267031333318429  0.32888683123284745  1.0000
  C   C29       1.0  0.16005712364939223  0.6588139935719608  0.5608499663750004  1.0000
  C   C30       1.0  0.16006072404773963  0.18429785129790321  0.571424153849639  1.0000
  O   O2        1.0  0.24043029948745942  0.428442925394176  0.3772537173259678  1.0000
  O   O3        1.0  0.24030714486173843  0.4146741859966716  0.7549622090459486  1.0000
  O   O4        1.0  0.24036760481111297  0.6104182566958205  0.5591116613320621  1.0000
  O   O5        1.0  0.2403697673568544  0.23269886397375172  0.5731041676652893  1.0000
  O   O6        1.0  0.07974576944893919  0.6104129024669915  0.5591697566715184  1.0000
  O   O7        1.0  0.07968530950475115  0.414670392499517  0.7550202343945995  1.0000
  O   O8        1.0  0.07980846471780922  0.4284390864361787  0.3773101809501076  1.0000
  O   O9        1.0  0.07974793255073997  0.2326950157363361  0.5731607286831268  1.0000
