data_image0
_chemical_formula_structural       NC7NC8NOH9C12H10C12H10Zn2C4O8
_chemical_formula_sum              "N3 C43 O9 H29 Zn2"
_cell_length_a       21.38721084674475
_cell_length_b       14.994056859933256
_cell_length_c       13.024585202197207
_cell_angle_alpha    85.82059027263038
_cell_angle_beta     93.68759365923059
_cell_angle_gamma    89.46587861790105

_space_group_name_H-M_alt    "P 1"
_space_group_IT_number       1

loop_
  _space_group_symop_operation_xyz
  'x, y, z'

loop_
  _atom_site_type_symbol
  _atom_site_label
  _atom_site_symmetry_multiplicity
  _atom_site_fract_x
  _atom_site_fract_y
  _atom_site_fract_z
  _atom_site_occupancy
  N   N1        1.0  0.5402598280496316  0.9656173209475425  0.8609245096138349  1.0000
  C   C1        1.0  0.4860403141687908  0.9664737892078749  0.85661470906107  1.0000
  C   C2        1.0  0.41859872367863754  0.967538506559443  0.8512534570481939  1.0000
  C   C3        1.0  0.38528891573057406  0.046450930862593096  0.8184380156623445  1.0000
  C   C4        1.0  0.3197670421074257  0.04750768460193688  0.813431255421208  1.0000
  C   C5        1.0  0.2870005907271864  0.9694825179708171  0.8392768655519351  1.0000
  C   C6        1.0  0.3206000611041644  0.8910161362503225  0.8748101016937819  1.0000
  C   C7        1.0  0.3861149601958132  0.8899113884000092  0.8798605673033848  1.0000
  N   N2        1.0  0.2199078140156694  0.9735042934012238  0.8376721190470464  1.0000
  C   C8        1.0  0.1809417937741256  0.9156658509958322  0.8006924790945493  1.0000
  C   C9        1.0  0.11288762883206493  0.9260820746839027  0.8134019638373986  1.0000
  C   C10       1.0  0.07027716210716879  0.8648263201015454  0.7726403965191457  1.0000
  C   C11       1.0  0.0060568845322284065  0.8740929628969286  0.7843162941714596  1.0000
  C   C12       1.0  0.9834944004010082  0.94460432995031  0.8368585498591652  1.0000
  C   C13       1.0  0.025403026655820105  0.005901708966594021  0.8777652923427661  1.0000
  C   C14       1.0  0.08964632150314032  0.9968170915151735  0.8662197605004434  1.0000
  C   C15       1.0  0.9173673596955401  0.9540423911682515  0.8488120605503122  1.0000
  N   N3        1.0  0.8642068166351663  0.961629903444213  0.8584217573107812  1.0000
  O   O1        1.0  0.2016195441467792  0.8449686840883952  0.7465181310164724  1.0000
  H   H1        1.0  0.4099268978344277  0.10714647129693321  0.7971307775263323  1.0000
  H   H2        1.0  0.2944097375000241  0.10899058902193802  0.7887140764365915  1.0000
  H   H3        1.0  0.2961144114568073  0.8311536941005813  0.8995633626444297  1.0000
  H   H4        1.0  0.4113973718506094  0.8288136484284047  0.9067396955924885  1.0000
  H   H5        1.0  0.08644381320095101  0.8096266094943048  0.7316713050369279  1.0000
  H   H6        1.0  0.9740147922016987  0.8262289787195218  0.7523527813668833  1.0000
  H   H7        1.0  0.0084397537811075  0.060745530427292804  0.9186180904686433  1.0000
  H   H8        1.0  0.12099551764950972  0.04520901992422143  0.8986955351981984  1.0000
  H   H9        1.0  0.24576116010673932  0.8399024710580861  0.7237235544799516  1.0000
  C   C16       1.0  0.7022919902635184  0.7016586323243098  0.8595990586217671  1.0000
  C   C17       1.0  0.7279018844670264  0.6587715580474006  0.7792066638841701  1.0000
  C   C18       1.0  0.7278981600313451  0.5655471025036023  0.7792641397869209  1.0000
  C   C19       1.0  0.7022456455956845  0.5131591975845083  0.8596424325254772  1.0000
  C   C20       1.0  0.6766231181032248  0.5561494501154052  0.939978911866473  1.0000
  C   C21       1.0  0.6766737057168611  0.6493739674417568  0.9399669231495231  1.0000
  C   C22       1.0  0.7022139209587995  0.41408293874074525  0.859687267347433  1.0000
  C   C23       1.0  0.6498076020370008  0.3652355024841363  0.8897595307560338  1.0000
  C   C24       1.0  0.6497721743710897  0.2720152390739948  0.8897574316364043  1.0000
  C   C25       1.0  0.7021810461307264  0.2255817157995998  0.859756086118532  1.0000
  C   C26       1.0  0.754576198468261  0.27432285489462827  0.8297375288035107  1.0000
  C   C27       1.0  0.7545906595906671  0.3675521514556007  0.8296575858096443  1.0000
  H   H10       1.0  0.6763992428656395  0.9096965245132558  0.9407872322392681  1.0000
  H   H11       1.0  0.7478389107782641  0.6972393336079978  0.7160037424993317  1.0000
  H   H12       1.0  0.7472418304831716  0.5344874782974454  0.7155979112557043  1.0000
  H   H13       1.0  0.6572584013152765  0.5176094827213127  0.0036741217732969554  1.0000
  H   H14       1.0  0.6567554033307839  0.6804068059963838  0.003149523498503612  1.0000
  H   H15       1.0  0.6084352268310138  0.3992103221318251  0.9120043454802598  1.0000
  H   H16       1.0  0.6085971463667288  0.23635800152489278  0.9130259358054376  1.0000
  H   H17       1.0  0.7957361722811255  0.24047893165226258  0.8064964947404951  1.0000
  H   H18       1.0  0.7959835678667679  0.4031769486521015  0.8073827120066106  1.0000
  H   H19       1.0  0.7551127966188812  0.013965542442615213  0.8294103480892951  1.0000
  C   C28       1.0  0.6894243980099778  0.9627072100496461  0.5575573431935341  1.0000
  C   C29       1.0  0.6755905233462471  0.034162643438258256  0.4832556758552793  1.0000
  C   C30       1.0  0.6969477112672302  0.03253397730766918  0.38421016867290114  1.0000
  C   C31       1.0  0.7320876559653724  0.9592114145770079  0.35746971953007245  1.0000
  C   C32       1.0  0.7465151965750293  0.8882562519890785  0.43169376565029727  1.0000
  C   C33       1.0  0.7251894933015216  0.8898096667450149  0.5307822709642742  1.0000
  C   C34       1.0  0.7555950924812936  0.9580987455709832  0.25308778974676316  1.0000
  C   C35       1.0  0.8207878594923281  0.9543879016060711  0.2449010463257486  1.0000
  C   C36       1.0  0.8459145665134877  0.9588091247045486  0.14848400430243003  1.0000
  C   C37       1.0  0.8063765240399972  0.9671797571522563  0.05894322948784736  1.0000
  C   C38       1.0  0.7415051063241272  0.9700525695641637  0.06538461665412165  1.0000
  C   C39       1.0  0.7150486035121614  0.9645331170761351  0.16179774921177548  1.0000
  H   H20       1.0  0.6657265483427512  0.8933431960990983  0.8076620897163673  1.0000
  H   H21       1.0  0.6483780690077835  0.09144366168529117  0.5016656710856993  1.0000
  H   H22       1.0  0.6861748904322932  0.08851312588717164  0.3283126312890845  1.0000
  H   H23       1.0  0.7739896237904034  0.8314329493166741  0.41260052251176993  1.0000
  H   H24       1.0  0.7367702981798115  0.8339152988833135  0.5863554478317121  1.0000
  H   H25       1.0  0.8523678046457211  0.9496462266828289  0.3136026190110208  1.0000
  H   H26       1.0  0.8961962386748685  0.9564205972400662  0.14321381476964756  1.0000
  H   H27       1.0  0.8260137949691373  0.9708718734077526  0.984225742669044  1.0000
  H   H28       1.0  0.7119052484573233  0.9749615691425418  0.9944818243781954  1.0000
  H   H29       1.0  0.5611554461614212  0.9975178472462486  0.07846143249623073  1.0000
  Zn  Zn1       1.0  0.633744192234587  0.9644642719920479  0.8602082113177012  1.0000
  Zn  Zn2       1.0  0.7707228289962361  0.9627756919007073  0.8591464858014686  1.0000
  C   C40       1.0  0.7102044572164378  0.9606341577078785  0.047582345326188435  1.0000
  C   C41       1.0  0.6942640638607133  0.9666069136299472  0.6717724415151234  1.0000
  C   C42       1.0  0.7020249309924732  0.126536729192394  0.855626644800684  1.0000
  C   C43       1.0  0.7024435458964974  0.8007032711046947  0.8637281969325334  1.0000
  O   O2        1.0  0.7478709795361919  0.967270990594039  0.7097011514131881  1.0000
  O   O3        1.0  0.7605611449562825  0.9586878136524096  0.008847513965686612  1.0000
  O   O4        1.0  0.7539554187009636  0.09265625012156889  0.8538419333825069  1.0000
  O   O5        1.0  0.7544766557773205  0.8333025608494924  0.8647066552204241  1.0000
  O   O6        1.0  0.6499903187091869  0.09393740362044699  0.8546480422556493  1.0000
  O   O7        1.0  0.6565960424083702  0.9599700387692084  0.009653568303826911  1.0000
  O   O8        1.0  0.6439058245810722  0.9685531808858873  0.7105059688010315  1.0000
  O   O9        1.0  0.650511504092075  0.8345847449939119  0.8655115497411145  1.0000
