data_image0
_chemical_formula_structural       NC5OC5NC4H8C9H10C6ClH5Zn2C4O8
_chemical_formula_sum              "N2 C33 O9 H23 Cl1 Zn2"
_cell_length_a       19.189071930511275
_cell_length_b       10.297183801781406
_cell_length_c       10.30297407846105
_cell_angle_alpha    85.53397833117516
_cell_angle_beta     89.9779158844828
_cell_angle_gamma    89.98878219536965

_space_group_name_H-M_alt    "P 1"
_space_group_IT_number       1

loop_
  _space_group_symop_operation_xyz
  'x, y, z'

loop_
  _atom_site_type_symbol
  _atom_site_label
  _atom_site_symmetry_multiplicity
  _atom_site_fract_x
  _atom_site_fract_y
  _atom_site_fract_z
  _atom_site_occupancy
  N   N1        1.0  0.656185720477176  0.4215304776741764  0.5668600176944603  1.0000
  C   C1        1.0  0.6017277816372786  0.4676614996976824  0.5485534000908185  1.0000
  C   C2        1.0  0.5339891282531445  0.5250408038664085  0.5257827191465223  1.0000
  C   C3        1.0  0.5242912891269462  0.6219918894413308  0.424354105023963  1.0000
  C   C4        1.0  0.4584905019812341  0.6778016081779072  0.4023608367265712  1.0000
  C   C5        1.0  0.40172878257162264  0.6365566763765089  0.480441387167091  1.0000
  O   O1        1.0  0.3367569364170298  0.6959990005120391  0.4561822916364956  1.0000
  C   C6        1.0  0.27178775061303445  0.6363670706176677  0.4798774476741956  1.0000
  C   C7        1.0  0.21502347459986076  0.7139778852295806  0.5100919328727918  1.0000
  C   C8        1.0  0.14922515612868736  0.6584537180758665  0.5329354610839991  1.0000
  C   C9        1.0  0.13953228881927035  0.5245962460492846  0.5244592158306507  1.0000
  C   C10       1.0  0.07179604501148791  0.4674165603318918  0.5478240931996521  1.0000
  N   N2        1.0  0.0173400953848863  0.4214460818503393  0.5666088539815557  1.0000
  C   C11       1.0  0.195823334351266  0.44667706929533124  0.4923280983988998  1.0000
  C   C12       1.0  0.2616127919365491  0.5022406882859902  0.46952817356865323  1.0000
  C   C13       1.0  0.41190876655912384  0.5405084782139589  0.5834874509778014  1.0000
  C   C14       1.0  0.4777006406052085  0.48469465380698223  0.6055420795113551  1.0000
  H   H1        1.0  0.5675391405013133  0.6545133349704018  0.36246789478302494  1.0000
  H   H2        1.0  0.45145386826020434  0.7528608547394173  0.32388225302025475  1.0000
  H   H3        1.0  0.22205622212363152  0.8175819572172923  0.516618556403309  1.0000
  H   H4        1.0  0.10597516311074838  0.719838650097675  0.557003476506815  1.0000
  H   H5        1.0  0.1887840657175085  0.3432261966934493  0.48422705713948555  1.0000
  H   H6        1.0  0.3041536781883526  0.4410645196589871  0.4420474303195432  1.0000
  H   H7        1.0  0.36936981867235413  0.5101649893877229  0.647825109073648  1.0000
  H   H8        1.0  0.48474379803771717  0.4106835394198789  0.685111315239295  1.0000
  C   C15       1.0  0.8367686927093883  0.040012735871430824  0.5669183780616641  1.0000
  C   C16       1.0  0.8347371604125614  0.04987319904247767  0.43030430987972884  1.0000
  C   C17       1.0  0.8336961858173902  0.9383085153207733  0.3603129278441417  1.0000
  C   C18       1.0  0.8347289964843592  0.8147021081390368  0.42977481418215957  1.0000
  C   C19       1.0  0.8367638252064976  0.8029538636032231  0.566561678691395  1.0000
  C   C20       1.0  0.8377697288304783  0.9160853091139642  0.6342405477022642  1.0000
  C   C21       1.0  0.8314987473775118  0.9584054973563325  0.21255516671372932  1.0000
  C   C22       1.0  0.7906933598836925  0.8596981171486179  0.1403131592422071  1.0000
  C   C23       1.0  0.8700859655801683  0.8599877850848607  0.136133721101235  1.0000
  H   H9        1.0  0.8375581243520581  0.3637516355786037  0.6195601558492452  1.0000
  H   H10       1.0  0.8339530232022774  0.14510224715167744  0.3775637422465188  1.0000
  H   H11       1.0  0.833964943956955  0.7271025833085186  0.3784988430834418  1.0000
  H   H12       1.0  0.8393367493717926  0.907750311930933  0.7396411703450798  1.0000
  H   H13       1.0  0.8405977865393034  0.5735482899411385  0.8249135561248603  1.0000
  H   H14       1.0  0.8307930918216178  0.05912122844430478  0.16506322434247056  1.0000
  H   H15       1.0  0.7674390852015686  0.776066037741811  0.1994112342197423  1.0000
  H   H16       1.0  0.7661079342316403  0.9005768342867808  0.048476582799722216  1.0000
  H   H17       1.0  0.8950584354599229  0.7765324631078071  0.1926936895807827  1.0000
  H   H18       1.0  0.8919020240428991  0.9010334330563855  0.04185324913743349  1.0000
  C   C24       1.0  0.8367662590570634  0.4214833158363988  0.1854975485108541  1.0000
  C   C25       1.0  0.8246451394411435  0.28656295039354096  0.19480272427842027  1.0000
  C   C26       1.0  0.8186310062299532  0.21961913988101855  0.08246290748112228  1.0000
  C   C27       1.0  0.8246451706082801  0.2865630237508856  0.9596948252513401  1.0000
  C   C28       1.0  0.8367662572799404  0.42148324878119214  0.947982567616859  1.0000
  C   C29       1.0  0.8427677445580068  0.4882857795010964  0.0615369418326759  1.0000
  Cl  Cl1       1.0  0.8034888505340406  0.0510715510291091  0.09559082535825958  1.0000
  H   H19       1.0  0.8413324774316698  0.4723054886816924  0.5092953882153981  1.0000
  H   H20       1.0  0.8198242965958162  0.23290197038948565  0.28902883968494963  1.0000
  H   H21       1.0  0.8198243452929698  0.23290195184172435  0.8738278735858405  1.0000
  H   H22       1.0  0.8521158845551655  0.5923404149281586  0.05343218598088262  1.0000
  H   H23       1.0  0.8413323448263235  0.47230547721697014  0.6162677578316207  1.0000
  Zn  Zn1       1.0  0.7604070805134199  0.42150265735316367  0.5667950304512199  1.0000
  Zn  Zn2       1.0  0.9131187527950855  0.4214633149585709  0.5666844610281236  1.0000
  C   C30       1.0  0.8367647264396852  0.41630816155080375  0.8038589658748015  1.0000
  C   C31       1.0  0.8367627744650475  0.4266594494090874  0.3296206510550601  1.0000
  C   C32       1.0  0.8367611484991028  0.6587417480329574  0.5614556704293159  1.0000
  C   C33       1.0  0.8367663003057911  0.184224302201478  0.5720240164835935  1.0000
  O   O2        1.0  0.8947148888077058  0.4283760095612382  0.377947722979326  1.0000
  O   O3        1.0  0.8947172378575182  0.4145607614350393  0.7554476010528459  1.0000
  O   O4        1.0  0.8947135673872415  0.610328948711743  0.5597052248712766  1.0000
  O   O5        1.0  0.8947185071677753  0.232607831590784  0.573690001851892  1.0000
  O   O6        1.0  0.7788072740277309  0.6103581407357903  0.5597894896583542  1.0000
  O   O7        1.0  0.7788109444848477  0.41459151419938256  0.7555317958877772  1.0000
  O   O8        1.0  0.7788085954816983  0.42840671705702316  0.37803035695229653  1.0000
  O   O9        1.0  0.7788122138389763  0.2326385297951594  0.5737727331647682  1.0000
