data_image0
_chemical_formula_structural       NC9NC3OH6C6SCOC6H10C7OC3OC4H11Zn2C4O8
_chemical_formula_sum              "N2 C43 O12 H27 S1 Zn2"
_cell_length_a       15.78231758774541
_cell_length_b       10.302038109246572
_cell_length_c       10.299374482448634
_cell_angle_alpha    85.55445882342694
_cell_angle_beta     90.0656979821288
_cell_angle_gamma    89.64990665055792

_space_group_name_H-M_alt    "P 1"
_space_group_IT_number       1

loop_
  _space_group_symop_operation_xyz
  'x, y, z'

loop_
  _atom_site_type_symbol
  _atom_site_label
  _atom_site_symmetry_multiplicity
  _atom_site_fract_x
  _atom_site_fract_y
  _atom_site_fract_z
  _atom_site_occupancy
  N   N1        1.0  0.7984500445020671  0.4132581683079743  0.5700389113074877  1.0000
  C   C1        1.0  0.7498967499416774  0.331208823997055  0.5941094434881058  1.0000
  C   C2        1.0  0.6896160372135445  0.22936564373177792  0.6239871751718713  1.0000
  C   C3        1.0  0.7092454978850892  0.10143421560324975  0.6614390085336082  1.0000
  C   C4        1.0  0.6324988482671866  0.03943362059427246  0.6796641866928057  1.0000
  C   C5        1.0  0.570742704640373  0.13411750964872857  0.6519868253132504  1.0000
  C   C6        1.0  0.4776471732408514  0.11661188481770135  0.657195715717626  1.0000
  C   C7        1.0  0.4239298892592118  0.22394797839538125  0.6256549201101812  1.0000
  C   C8        1.0  0.3357196711798977  0.20959378409369855  0.6299332462997034  1.0000
  C   C9        1.0  0.2813067008615419  0.3200528788686272  0.5974665081773947  1.0000
  N   N2        1.0  0.23757156405938398  0.40884774019903625  0.5713661519215532  1.0000
  C   C10       1.0  0.30054540804153934  0.08774374103512805  0.6658013441050883  1.0000
  C   C11       1.0  0.3533318161731804  0.9806295608235767  0.6972812872456213  1.0000
  C   C12       1.0  0.4413562697292196  0.9945894226719593  0.6931192216017977  1.0000
  O   O1        1.0  0.6072301935451243  0.2463302479937916  0.6190880920749757  1.0000
  H   H1        1.0  0.7716947434462587  0.05829116011903102  0.6740182589251  1.0000
  H   H2        1.0  0.6237403016957862  0.9374884032631585  0.7095237952747433  1.0000
  H   H3        1.0  0.4505599415125265  0.31876891875459257  0.5977384583297305  1.0000
  H   H4        1.0  0.2324259565363298  0.07558648488063778  0.6694227414066838  1.0000
  H   H5        1.0  0.3259716162005315  0.8864568655262149  0.7250073212149947  1.0000
  H   H6        1.0  0.48042071238684636  0.909747446729795  0.7180618036685869  1.0000
  C   C13       1.0  0.017934604575340782  0.02977529949592395  0.570662132703722  1.0000
  C   C14       1.0  0.9455161094474288  0.035290805751546646  0.4909212100932734  1.0000
  C   C15       1.0  0.9098823322520913  0.9210726913088011  0.450762708624182  1.0000
  C   C16       1.0  0.9457886516000735  0.80015548270007  0.49086802600812907  1.0000
  C   C17       1.0  0.01809511312797651  0.792320563517257  0.5707541950620629  1.0000
  C   C18       1.0  0.053838824006161135  0.9077870737615298  0.6101521147498561  1.0000
  S   S1        1.0  0.8179600484365195  0.9295548627277238  0.34787260562771416  1.0000
  C   C19       1.0  0.8802844239852109  0.9374575967788269  0.20163445530828647  1.0000
  O   O2        1.0  0.9007242871616689  0.831995401671537  0.1553447468536382  1.0000
  C   C20       1.0  0.9082422157922383  0.06335828247839648  0.13621936738583718  1.0000
  C   C21       1.0  0.9681694000927762  0.06511937640826515  0.034890807302548  1.0000
  C   C22       1.0  0.9954138533028738  0.18319634132294496  0.9732481394022212  1.0000
  C   C23       1.0  0.9631897416085967  0.30074790464025924  0.011653208349761577  1.0000
  C   C24       1.0  0.9035176555348647  0.30045714799214074  0.11162945335025176  1.0000
  C   C25       1.0  0.8759907139284272  0.18268658315127542  0.17359144997599474  1.0000
  H   H7        1.0  0.1543368215168638  0.22668419010350882  0.7211328953829966  1.0000
  H   H8        1.0  0.9166953559859651  0.12810965818676598  0.4595573305592599  1.0000
  H   H9        1.0  0.9172409701334711  0.712698173210518  0.45901642558430145  1.0000
  H   H10       1.0  0.10966874722206404  0.9026146897107306  0.6716237229006241  1.0000
  H   H11       1.0  0.04573384805061195  0.4620257946091548  0.6008052408596748  1.0000
  H   H12       1.0  0.9943865209484275  0.9752988957373004  0.0036714994975035596  1.0000
  H   H13       1.0  0.0416499346156651  0.18350366226412881  0.8956878677859641  1.0000
  H   H14       1.0  0.9843786100246656  0.39205075305703807  0.963841476197698  1.0000
  H   H15       1.0  0.8784113711141895  0.3916497727296482  0.14109140989075297  1.0000
  H   H16       1.0  0.8292585205348785  0.1857722192622837  0.2500178489598561  1.0000
  C   C26       1.0  0.018093355712008652  0.41113460694023196  0.18932586181913447  1.0000
  C   C27       1.0  0.10660111599245425  0.42490648696274014  0.1872237584378886  1.0000
  C   C28       1.0  0.1511352579612274  0.4333247506529198  0.06887558200091592  1.0000
  C   C29       1.0  0.10639857075135967  0.42484466571675994  0.9519842878389362  1.0000
  C   C30       1.0  0.01793632149024326  0.4109612328012444  0.9520903935981323  1.0000
  C   C31       1.0  0.974271672116823  0.40452772478250476  0.07126891213933306  1.0000
  C   C32       1.0  0.2446924966407632  0.4465077169089047  0.06662103663268604  1.0000
  O   O3        1.0  0.2862511761395796  0.39256105872960434  0.9808930878234734  1.0000
  C   C33       1.0  0.29109992545933006  0.5209051227205117  0.16153811157014508  1.0000
  C   C34       1.0  0.3737593793941252  0.48336583878490247  0.19994782044692272  1.0000
  C   C35       1.0  0.41903266919889326  0.5531584091478947  0.28829642908829034  1.0000
  O   O4        1.0  0.5010028637855022  0.510452927082893  0.3238323890363284  1.0000
  C   C36       1.0  0.5541038002062837  0.5717755169298739  0.412392636699098  1.0000
  C   C37       1.0  0.3811783328976839  0.6628990989483745  0.3381098013046653  1.0000
  C   C38       1.0  0.2995084421261396  0.7017613385539054  0.29919268908469604  1.0000
  C   C39       1.0  0.2547241473604678  0.6317309032913334  0.21108656298825856  1.0000
  H   H17       1.0  0.8512127485450489  0.38315687133201143  0.4007689136392212  1.0000
  H   H18       1.0  0.1411114605163697  0.4276511214713705  0.277919715668703  1.0000
  H   H19       1.0  0.14071403682960537  0.430354191875002  0.8606950951854162  1.0000
  H   H20       1.0  0.9060386552451309  0.3939097602522521  0.07208576472148809  1.0000
  H   H21       1.0  0.40312637267555873  0.3987789349170483  0.16214795138806792  1.0000
  H   H22       1.0  0.615083905929307  0.5178185956454971  0.42252922755260935  1.0000
  H   H23       1.0  0.5235068679303825  0.5702823168251512  0.5095346477380791  1.0000
  H   H24       1.0  0.5671518816090249  0.6736258390207825  0.37478277679579053  1.0000
  H   H25       1.0  0.41439379649258906  0.7189897354586454  0.40640791859577713  1.0000
  H   H26       1.0  0.27093732257036285  0.7868291817721969  0.3370239533527033  1.0000
  H   H27       1.0  0.1920743013162568  0.6650790988012816  0.18067696561019983  1.0000
  Zn  Zn1       1.0  0.9251710235817616  0.4119819441767045  0.5704294175894402  1.0000
  Zn  Zn2       1.0  0.11085055207135136  0.41011336498437667  0.5709862610520169  1.0000
  C   C40       1.0  0.017963033454786656  0.40582159306405735  0.8079109704850009  1.0000
  C   C41       1.0  0.018060570131531492  0.41627533389053  0.3335048419058151  1.0000
  C   C42       1.0  0.018061454015177544  0.648184487858262  0.5655614047093134  1.0000
  C   C43       1.0  0.017962085869150934  0.17391087978915398  0.5758544765442741  1.0000
  O   O5        1.0  0.08851397918394399  0.4172858283658018  0.3821039432225284  1.0000
  O   O6        1.0  0.08843609006496628  0.4033919108147986  0.75973412649454  1.0000
  O   O7        1.0  0.08851461574018343  0.5991030227105592  0.5640351347815029  1.0000
  O   O8        1.0  0.08843539017088248  0.22157472641779094  0.5778028373685904  1.0000
  O   O9        1.0  0.9475861221189217  0.6005205833823595  0.5636128410760121  1.0000
  O   O10       1.0  0.9475075967823858  0.4048110314328394  0.7593117637294229  1.0000
  O   O11       1.0  0.9475854862696373  0.41870490409303396  0.3816800189966787  1.0000
  O   O12       1.0  0.9475068972311117  0.22299379283634235  0.5773790105128618  1.0000
