data_image0
_chemical_formula_structural       NC5NC3F3CH3C6NCH9C6NCOH5Zn2C4O8
_chemical_formula_sum              "N4 C27 F3 H17 O9 Zn2"
_cell_length_a       13.85151926108384
_cell_length_b       9.273386996610926
_cell_length_c       9.273733555595829
_cell_angle_alpha    86.07967468279998
_cell_angle_beta     90.01106478647557
_cell_angle_gamma    89.3985898819531

_space_group_name_H-M_alt    "P 1"
_space_group_IT_number       1

loop_
  _space_group_symop_operation_xyz
  'x, y, z'

loop_
  _atom_site_type_symbol
  _atom_site_label
  _atom_site_symmetry_multiplicity
  _atom_site_fract_x
  _atom_site_fract_y
  _atom_site_fract_z
  _atom_site_occupancy
  N   N1        1.0  0.897901293150776  0.5617731892693292  0.4076915180080627  1.0000
  C   C1        1.0  0.8256389711754069  0.5533607601847439  0.470157234315639  1.0000
  C   C2        1.0  0.7357389629180535  0.5428945487342591  0.5478735214807386  1.0000
  C   C3        1.0  0.6481440139790493  0.5513083232015026  0.47235280116196443  1.0000
  C   C4        1.0  0.5606869735055119  0.5428945353686028  0.5478735014489757  1.0000
  C   C5        1.0  0.4706197189476579  0.5533607773501477  0.47015732833263635  1.0000
  N   N2        1.0  0.3982231078095421  0.5617731524993839  0.4076916234965653  1.0000
  C   C6        1.0  0.560822644445774  0.5250705385585359  0.699092566245693  1.0000
  C   C7        1.0  0.6484491595621551  0.513479381698313  0.7758803260217797  1.0000
  C   C8        1.0  0.6485674751722451  0.49964708196479846  0.9388856765467759  1.0000
  F   F1        1.0  0.7300306001412078  0.4253599462789908  0.9905975535488127  1.0000
  F   F2        1.0  0.5681617857009457  0.42535991673483653  0.9905976528707308  1.0000
  F   F3        1.0  0.6476154874678134  0.6360646398275129  0.990368461609521  1.0000
  C   C9        1.0  0.7358929719573729  0.5250704434820492  0.6990925860144095  1.0000
  H   H1        1.0  0.6480307622004298  0.5652685506528883  0.35527337412673354  1.0000
  H   H2        1.0  0.49273890174842694  0.5205097040985902  0.7567385504432089  1.0000
  H   H3        1.0  0.8040556558341461  0.5205096227302952  0.7567385095458294  1.0000
  C   C10       1.0  0.15103559309005066  0.13812680278562373  0.4083997538162314  1.0000
  C   C11       1.0  0.16797969324151274  0.22020289691017592  0.27808942721720714  1.0000
  C   C12       1.0  0.1758338935311588  0.15430041610113676  0.14777104435956118  1.0000
  C   C13       1.0  0.16686273082882908  0.003963880885930136  0.14443104977603946  1.0000
  C   C14       1.0  0.15161991741391256  0.9209200107811883  0.2742887076838181  1.0000
  C   C15       1.0  0.1450980923503129  0.9854085817375767  0.40699584813072115  1.0000
  N   N3        1.0  0.17390066457278341  0.9329960794868289  0.011422114889804384  1.0000
  C   C16       1.0  0.18997549075072503  0.009382135606876837  0.8707823789991767  1.0000
  H   H4        1.0  0.17077226316316058  0.4028126881981624  0.6450121247138483  1.0000
  H   H5        1.0  0.17290367152266128  0.3368298005864456  0.2763212747483921  1.0000
  H   H6        1.0  0.18800326723152394  0.22185115686984602  0.04987546614575434  1.0000
  H   H7        1.0  0.1470629888131707  0.8044945236424396  0.2720151373816462  1.0000
  H   H8        1.0  0.18066331546450076  0.8578165474177494  0.7580193716375403  1.0000
  H   H9        1.0  0.16707550450231445  0.8206610535629556  0.01441067841124788  1.0000
  H   H10       1.0  0.13012554752032335  0.08768676824858289  0.8457418196290885  1.0000
  H   H11       1.0  0.259852120022245  0.06693638034025472  0.8710149489670496  1.0000
  H   H12       1.0  0.19240447990022186  0.9310292152729553  0.7854616513087378  1.0000
  C   C17       1.0  0.14804346266994695  0.5572223986294645  0.9844783132656477  1.0000
  C   C18       1.0  0.0593703114686315  0.5489420873196798  0.058443490651720824  1.0000
  C   C19       1.0  0.9714932000547735  0.5523530438142017  0.983488348352953  1.0000
  C   C20       1.0  0.9722306446217024  0.5687337297672561  0.8321134708847184  1.0000
  C   C21       1.0  0.05946724024712815  0.5748613039476083  0.7569478679384365  1.0000
  C   C22       1.0  0.1480902392615742  0.5663129837045227  0.8309172827594921  1.0000
  N   N4        1.0  0.8825113520616106  0.5472931562204661  0.06351121283248416  1.0000
  C   C23       1.0  0.7959991543386133  0.48086008111668455  0.016838864020058523  1.0000
  O   O1        1.0  0.7960265099122713  0.40451353348889496  0.9096145381113794  1.0000
  H   H13       1.0  0.37483898425762074  0.6573963881467653  0.08062578674665777  1.0000
  H   H14       1.0  0.9054892629679406  0.5783390307548786  0.771482938099354  1.0000
  H   H15       1.0  0.3016448419494576  0.6276842734614179  0.5457093616710476  1.0000
  H   H16       1.0  0.8818968004339454  0.5856521039758533  0.16686665053405147  1.0000
  H   H17       1.0  0.7299292364805606  0.4929589823221365  0.07723965274519039  1.0000
  Zn  Zn1       1.0  0.04228338894120642  0.5617694165274034  0.4076998618105452  1.0000
  Zn  Zn2       1.0  0.2538410776728235  0.5617652843627121  0.40769505006909057  1.0000
  C   C24       1.0  0.14811951981166413  0.5588474655980895  0.6709316974328452  1.0000
  C   C25       1.0  0.14800724425767586  0.5646890570386227  0.14446335283240974  1.0000
  C   C26       1.0  0.14621513596283586  0.8251926242420311  0.40151810969047097  1.0000
  C   C27       1.0  0.14991156806712708  0.2983421659477943  0.41387702028515627  1.0000
  O   O2        1.0  0.22828017346430207  0.5671870738443265  0.1981539779903847  1.0000
  O   O3        1.0  0.22841398884438746  0.5563452197874621  0.6172370072067432  1.0000
  O   O4        1.0  0.22687509260431304  0.7714223199022092  0.39968362649799527  1.0000
  O   O5        1.0  0.2298189974357757  0.35210998289055184  0.4157072506233319  1.0000
  O   O6        1.0  0.06630539698398574  0.7714247180024632  0.39968766125036237  1.0000
  O   O7        1.0  0.06784428106917019  0.5563493503375025  0.6172409622427972  1.0000
  O   O8        1.0  0.067710466009826  0.5671911355120689  0.19815620036448722  1.0000
  O   O9        1.0  0.06924929005563252  0.3521140354002208  0.41570958106729505  1.0000
