data_image0
_chemical_formula_structural       NC5NC3F3CH3C7NH5C7ONH5Zn2C4O8
_chemical_formula_sum              "N4 C27 F3 H13 O9 Zn2"
_cell_length_a       13.85151926108384
_cell_length_b       9.275154477615127
_cell_length_c       9.273042158839656
_cell_angle_alpha    86.38948304707893
_cell_angle_beta     90.09323963097282
_cell_angle_gamma    89.43371178103573

_space_group_name_H-M_alt    "P 1"
_space_group_IT_number       1

loop_
  _space_group_symop_operation_xyz
  'x, y, z'

loop_
  _atom_site_type_symbol
  _atom_site_label
  _atom_site_symmetry_multiplicity
  _atom_site_fract_x
  _atom_site_fract_y
  _atom_site_fract_z
  _atom_site_occupancy
  N   N1        1.0  0.8970244597152524  0.5612155717648171  0.41631024609824285  1.0000
  C   C1        1.0  0.824818680013816  0.5527951155345138  0.4787343201267344  1.0000
  C   C2        1.0  0.7349890184564617  0.5423189171360026  0.5563987986411214  1.0000
  C   C3        1.0  0.6473249741720744  0.5507433902722392  0.48091856963128027  1.0000
  C   C4        1.0  0.5599370290190581  0.5423189037820082  0.556398778532613  1.0000
  C   C5        1.0  0.46979942788366535  0.5527951326709616  0.4787344142483557  1.0000
  N   N2        1.0  0.39734627446005083  0.5612155349940811  0.41631035138986294  1.0000
  C   C6        1.0  0.5602106439789992  0.5244740370034017  0.7075312873688124  1.0000
  C   C7        1.0  0.6479061416181998  0.5128737196833673  0.7842608462439201  1.0000
  C   C8        1.0  0.6481754072581323  0.49901587914288204  0.9472030762827439  1.0000
  F   F1        1.0  0.7296571346629295  0.42476018536309734  0.9985028635444855  1.0000
  F   F2        1.0  0.567788320305797  0.42476015581532695  0.9985029627095036  1.0000
  F   F3        1.0  0.6473300789367831  0.6353457222245775  0.9994556000538911  1.0000
  C   C9        1.0  0.7352809714697749  0.5244739419766564  0.7075313066059956  1.0000
  H   H1        1.0  0.6471049881288673  0.5647196853840626  0.3639070561531072  1.0000
  H   H2        1.0  0.49218042259358113  0.519903982977103  0.7651568052852485  1.0000
  H   H3        1.0  0.8034971766058837  0.5199039016632125  0.7651567639278427  1.0000
  C   C10       1.0  0.1499819489913421  0.13780871302580433  0.41464229980404027  1.0000
  C   C11       1.0  0.12335283481583441  0.21964987015678505  0.2875535127839459  1.0000
  C   C12       1.0  0.08887802452997717  0.15234438967504804  0.16719680720418334  1.0000
  C   C13       1.0  0.0804652612493162  0.0022798146275613304  0.17251142744175674  1.0000
  C   C14       1.0  0.10798618735474877  0.9192004854591814  0.2967033269451538  1.0000
  C   C15       1.0  0.1443981022111802  0.9846114815900175  0.4179907131187468  1.0000
  C   C16       1.0  0.06096295383604744  0.23775123360948647  0.038576268780920575  1.0000
  N   N3        1.0  0.03852697736448873  0.30640277693010654  0.9351983017433255  1.0000
  H   H4        1.0  0.16906223915338492  0.21820454110196996  0.7684555254913166  1.0000
  H   H5        1.0  0.12729113129061065  0.3365642460278924  0.2832766769008803  1.0000
  H   H6        1.0  0.05345479372837114  0.9491794271546781  0.08000974014196549  1.0000
  H   H7        1.0  0.10291660587817436  0.8027315540082589  0.2965764746254942  1.0000
  H   H8        1.0  0.16134097733921896  0.6883369383951564  0.6550556389165452  1.0000
  C   C17       1.0  0.14675776264827056  0.5567539849931322  0.9930339593996473  1.0000
  C   C18       1.0  0.058026394437151074  0.5659354439542703  0.0657510628536544  1.0000
  C   C19       1.0  0.9709464258181317  0.5890633366765157  0.9895863434175859  1.0000
  C   C20       1.0  0.9731445362592125  0.6012682352443772  0.8381359029981987  1.0000
  C   C21       1.0  0.06030941505323953  0.5899698652677623  0.7644009981995423  1.0000
  C   C22       1.0  0.1476223128237526  0.5656661479735936  0.8395990380305834  1.0000
  C   C23       1.0  0.878627596921643  0.599016962318834  0.06948571272597912  1.0000
  O   O1        1.0  0.8725458588421062  0.5432207656118486  0.19663570856333434  1.0000
  N   N4        1.0  0.7960264181266556  0.6721651037671005  0.006238479672690203  1.0000
  H   H9        1.0  0.3806226924185905  0.6118278703524871  0.09321180746295599  1.0000
  H   H10       1.0  0.9073998342293489  0.615524124540475  0.7755691333800323  1.0000
  H   H11       1.0  0.30529912676307974  0.5960713434182244  0.5567974958217684  1.0000
  H   H12       1.0  0.8002651533966141  0.7344274531148705  0.90881884520709  1.0000
  H   H13       1.0  0.7307757978793709  0.6720028170926557  0.06248029299174451  1.0000
  Zn  Zn1       1.0  0.04140656194841186  0.5612117994493451  0.4163185694797449  1.0000
  Zn  Zn2       1.0  0.2529642443218596  0.561207670607311  0.41631373413385797  1.0000
  C   C24       1.0  0.14749459122173803  0.5582376195314515  0.6795573752973088  1.0000
  C   C25       1.0  0.14687851340015734  0.5641836712128436  0.15307507693242384  1.0000
  C   C26       1.0  0.145442728914571  0.8244872441033273  0.4116138172475998  1.0000
  C   C27       1.0  0.14893031501876708  0.2979323151578752  0.4210187049822329  1.0000
  O   O2        1.0  0.22720411785246716  0.566669284633478  0.20678447810896025  1.0000
  O   O3        1.0  0.22773637932803428  0.5557477803304975  0.6258438849712942  1.0000
  O   O4        1.0  0.2260783938155243  0.7707477351579879  0.4094775720538151  1.0000
  O   O5        1.0  0.22886203099628943  0.3516693389838992  0.4231506829924321  1.0000
  O   O6        1.0  0.06550870307970968  0.7707501310756562  0.4094816206152454  1.0000
  O   O7        1.0  0.06716667708650514  0.5557519077341568  0.6258478635266986  1.0000
  O   O8        1.0  0.06663441423670015  0.5666733435484744  0.206786723462292  1.0000
  O   O9        1.0  0.0682923275549381  0.3516733887238823  0.42315303637384627  1.0000
