data_image0
_chemical_formula_structural       NC5NC3OH4C6ClH5C6NCOH5Zn2C4O8
_chemical_formula_sum              "N3 C25 O10 H14 Cl1 Zn2"
_cell_length_a       13.84702359539666
_cell_length_b       10.30297070629231
_cell_length_c       9.273733555595832
_cell_angle_alpha    86.17407986501598
_cell_angle_beta     89.99675348252173
_cell_angle_gamma    89.99918224466363

_space_group_name_H-M_alt    "P 1"
_space_group_IT_number       1

loop_
  _space_group_symop_operation_xyz
  'x, y, z'

loop_
  _atom_site_type_symbol
  _atom_site_label
  _atom_site_symmetry_multiplicity
  _atom_site_fract_x
  _atom_site_fract_y
  _atom_site_fract_z
  _atom_site_occupancy
  N   N1        1.0  0.9091408141977597  0.4055082350056163  0.40993744826219114  1.0000
  C   C1        1.0  0.8370049665269113  0.39831290882754544  0.47298684282897785  1.0000
  C   C2        1.0  0.7471687922652583  0.3893532076928791  0.5514966237663375  1.0000
  C   C3        1.0  0.6595747371121521  0.3980088410045654  0.47565053971722526  1.0000
  C   C4        1.0  0.5717231320412884  0.38945377177151763  0.5506149996777252  1.0000
  C   C5        1.0  0.4818618802337302  0.39836542618622883  0.4725263446766488  1.0000
  N   N2        1.0  0.40962506401419724  0.40552971436348373  0.40974929150499695  1.0000
  C   C6        1.0  0.571460259240368  0.37221724268135165  0.7016508817767211  1.0000
  C   C7        1.0  0.658674094678591  0.3635535150782033  0.7775649854658176  1.0000
  C   C8        1.0  0.7468411922522447  0.3720534650169034  0.7030851254901329  1.0000
  O   O1        1.0  0.8337754131795597  0.36337496442944434  0.7791306102862354  1.0000
  H   H1        1.0  0.659782968569169  0.4113623268496375  0.35864093442526146  1.0000
  H   H2        1.0  0.503913247563357  0.3654839444331386  0.7606513615232591  1.0000
  H   H3        1.0  0.6576874791945713  0.350226522319659  0.8943432197587269  1.0000
  H   H4        1.0  0.8353217779554879  0.35090213075552734  0.8884233330546796  1.0000
  C   C9        1.0  0.1593875357990775  0.02427158262223684  0.40984956529352856  1.0000
  C   C10       1.0  0.2591111447197063  0.021401131604730235  0.4375717970399164  1.0000
  C   C11       1.0  0.3085913377878565  0.9030200455396131  0.4513267277709867  1.0000
  C   C12       1.0  0.25911114393987567  0.7862931622795937  0.43757172925905713  1.0000
  C   C13       1.0  0.15938754611611672  0.7867565252328631  0.40984964779208766  1.0000
  C   C14       1.0  0.11001184921650498  0.9063394278228133  0.3961236336397971  1.0000
  Cl  Cl1       1.0  0.43316988506617404  0.9009376842976176  0.48595830083140484  1.0000
  H   H5        1.0  0.12182339880978033  0.35265594177119297  0.3994062792437576  1.0000
  H   H6        1.0  0.2987736475398648  0.11078474678779135  0.4485974786020124  1.0000
  H   H7        1.0  0.29877360933557173  0.6955835529571238  0.4485973750694588  1.0000
  H   H8        1.0  0.03310197572328466  0.9076248792008378  0.3747433708031982  1.0000
  H   H9        1.0  0.12182339413574916  0.45962797772508457  0.3994065513519758  1.0000
  C   C15       1.0  0.15933229103368052  0.40142362982212937  0.9866225962079166  1.0000
  C   C16       1.0  0.07057230728927744  0.3939682118691818  0.06060743894788478  1.0000
  C   C17       1.0  0.982690577466961  0.3970340245246764  0.9856910043479483  1.0000
  C   C18       1.0  0.9835430899324058  0.41177535007242366  0.8343429493767385  1.0000
  C   C19       1.0  0.07085096105359256  0.41729341686617094  0.7591546601383633  1.0000
  C   C20       1.0  0.1594428077458135  0.40960442392882807  0.8330765874330397  1.0000
  N   N3        1.0  0.8936443718592788  0.3924767144712597  0.0657389781537574  1.0000
  C   C21       1.0  0.8066383926972044  0.3326886002960663  0.018989274529550793  1.0000
  O   O2        1.0  0.8061305684142004  0.26398287698421097  0.911638631712441  1.0000
  H   H10       1.0  0.3869036604186429  0.4915818633152035  0.08285046194207024  1.0000
  H   H11       1.0  0.9168473738663563  0.420416479669137  0.7737534195889166  1.0000
  H   H12       1.0  0.31347747402312276  0.46484021841610046  0.5479124216217861  1.0000
  H   H13       1.0  0.8932985166600087  0.42699664187732433  0.16915810757073224  1.0000
  H   H14       1.0  0.7406318385358963  0.343573797445958  0.07943493898295917  1.0000
  Zn  Zn1       1.0  0.053569756998419045  0.40551103822976065  0.40989146058258186  1.0000
  Zn  Zn2       1.0  0.26519609868843297  0.40551640188029325  0.4098070412603825  1.0000
  C   C22       1.0  0.15941976457475193  0.4028860620626359  0.6730786402449438  1.0000
  C   C23       1.0  0.15934840208370704  0.40814301757079874  0.14662000213307014  1.0000
  C   C24       1.0  0.15938184007428724  0.6425751038705073  0.4041064065948565  1.0000
  C   C25       1.0  0.1593862543808624  0.16845241669812358  0.415592312649985  1.0000
  O   O3        1.0  0.23966490287045494  0.4103944770222516  0.2002845564628588  1.0000
  O   O4        1.0  0.23972276037629214  0.4006376900776671  0.6193495987244846  1.0000
  O   O5        1.0  0.2396910534262569  0.5941896370753685  0.40215261746079123  1.0000
  O   O6        1.0  0.2396965375926459  0.21684253826558253  0.4174814296930984  1.0000
  O   O7        1.0  0.0790692458765212  0.5941849018439815  0.40221707217109337  1.0000
  O   O8        1.0  0.07910095281218021  0.40063451391059335  0.619413976589186  1.0000
  O   O9        1.0  0.07904309514432442  0.4103912388666883  0.20034720155153085  1.0000
  O   O10       1.0  0.0790747298766743  0.21683929186849715  0.41754418283645145  1.0000
