data_image0
_chemical_formula_structural       NC5NC3F3CH3C6ClH5C7ONH5Zn2C4O8
_chemical_formula_sum              "N3 C26 F3 H13 Cl1 O9 Zn2"
_cell_length_a       13.85151926108384
_cell_length_b       10.30297070629231
_cell_length_c       9.273042158839656
_cell_angle_alpha    86.1623812568413
_cell_angle_beta     90.09323963097282
_cell_angle_gamma    89.9983157295073

_space_group_name_H-M_alt    "P 1"
_space_group_IT_number       1

loop_
  _space_group_symop_operation_xyz
  'x, y, z'

loop_
  _atom_site_type_symbol
  _atom_site_label
  _atom_site_symmetry_multiplicity
  _atom_site_fract_x
  _atom_site_fract_y
  _atom_site_fract_z
  _atom_site_occupancy
  N   N1        1.0  0.9073192359678246  0.4057622231462836  0.4101370504081414  1.0000
  C   C1        1.0  0.8350579311266171  0.3981802085390144  0.4725944197259256  1.0000
  C   C2        1.0  0.7451591887066065  0.3887471461117897  0.5503003221307552  1.0000
  C   C3        1.0  0.6575506960497792  0.39633277765365643  0.4747867819483918  1.0000
  C   C4        1.0  0.5701071991811455  0.3887471340874793  0.5503003020750494  1.0000
  C   C5        1.0  0.48003867910946524  0.39818022396915165  0.4725945137797878  1.0000
  N   N2        1.0  0.40764105047015414  0.4057621900368833  0.410137155845157  1.0000
  C   C6        1.0  0.570263143709107  0.3726791162889591  0.7015033712212282  1.0000
  C   C7        1.0  0.6578821479585228  0.3622338657034942  0.7782787988605095  1.0000
  C   C8        1.0  0.6580600339259177  0.349755877987693  0.9412758241262348  1.0000
  F   F1        1.0  0.739052113541667  0.28289397175450026  0.9928692255032198  1.0000
  F   F2        1.0  0.5771832989896941  0.2828939451488599  0.9928693247850716  1.0000
  F   F3        1.0  0.65811367513604  0.47251108665824687  0.9929892866588419  1.0000
  C   C9        1.0  0.7453334705732686  0.3726790307242168  0.7015033908341566  1.0000
  H   H1        1.0  0.657422870777716  0.4089174251828475  0.35772000486261146  1.0000
  H   H2        1.0  0.5022027870339096  0.3685641116578913  0.7591469595683784  1.0000
  H   H3        1.0  0.8135195405100218  0.3685640384405873  0.7591469185324955  1.0000
  C   C10       1.0  0.15748474766352527  0.02451482989647946  0.41014329532929605  1.0000
  C   C11       1.0  0.25720264813067817  0.021634982624011194  0.4379055228265434  1.0000
  C   C12       1.0  0.30668000871984  0.9032492344065408  0.45168029837265955  1.0000
  C   C13       1.0  0.25720264728601383  0.7865270133114011  0.43790545503932066  1.0000
  C   C14       1.0  0.1574847580564387  0.7869997724914567  0.41014337783912347  1.0000
  C   C15       1.0  0.1081118875270497  0.9065873274122198  0.39639756076979477  1.0000
  Cl  Cl1       1.0  0.43125142468426847  0.9011551350217006  0.4863618356462249  1.0000
  H   H4        1.0  0.11992276017389503  0.35290272859883437  0.3996849435083798  1.0000
  H   H5        1.0  0.29686288044134884  0.11101486071092402  0.4489471116596806  1.0000
  H   H6        1.0  0.29686284215002434  0.695813666900981  0.44894700810348387  1.0000
  H   H7        1.0  0.031206416531399217  0.9078800254739322  0.37498645199312697  1.0000
  H   H8        1.0  0.11992275576267013  0.45987476450277404  0.39968521563920734  1.0000
  C   C16       1.0  0.1570231188525315  0.40174488546892895  0.9868784052503609  1.0000
  C   C17       1.0  0.06835229389205999  0.4100121282471607  0.05955920433749263  1.0000
  C   C18       1.0  0.9814248323867764  0.4308371305581226  0.9833030350015801  1.0000
  C   C19       1.0  0.9837034228731586  0.44182676303061846  0.8318043352459427  1.0000
  C   C20       1.0  0.07079379934154173  0.4316533942892972  0.7581141052827833  1.0000
  C   C21       1.0  0.15794643652013265  0.4097696466044414  0.8334082443364865  1.0000
  C   C22       1.0  0.8891716384677648  0.43979965384085806  0.06316304672218798  1.0000
  O   O1        1.0  0.882721975950866  0.3895591957359896  0.1905336660578396  1.0000
  N   N3        1.0  0.8070528041760735  0.5056642889374032  0.9996265789215055  1.0000
  H   H9        1.0  0.391251210083311  0.4513349542078371  0.08683848590352672  1.0000
  H   H10       1.0  0.9180527252801196  0.4546631649934529  0.7691811964780237  1.0000
  H   H11       1.0  0.3158237446703036  0.43714733608977285  0.5504864770768383  1.0000
  H   H12       1.0  0.8117021021941158  0.561727051966657  0.9019607531716272  1.0000
  H   H13       1.0  0.7418011137979034  0.5055181614708443  0.05586903393759202  1.0000
  Zn  Zn1       1.0  0.05170131332604444  0.40575882644778755  0.4101453887057399  1.0000
  Zn  Zn2       1.0  0.2632589684735882  0.4057551087227908  0.41014056968568924  1.0000
  C   C23       1.0  0.15776973062691566  0.4030807915568795  0.6733959547151585  1.0000
  C   C24       1.0  0.15719286153009593  0.4084347830118382  0.14689014509322673  1.0000
  C   C25       1.0  0.15747353894068672  0.6428194099252117  0.4043996201849794  1.0000
  C   C26       1.0  0.1574889811102338  0.16869460556763813  0.41588655646995704  1.0000
  O   O2        1.0  0.2375348563095834  0.41067289894615633  0.200589717916567  1.0000
  O   O3        1.0  0.23799510054091189  0.4008388706116166  0.6196923094514799  1.0000
  O   O4        1.0  0.23775484136247904  0.5944308510791121  0.40247586614937225  1.0000
  O   O5        1.0  0.23777504317984802  0.21708092674271007  0.41780605314837704  1.0000
  O   O6        1.0  0.07718516642553123  0.5944330084304783  0.4024799052371148  1.0000
  O   O7        1.0  0.07742542551580181  0.40084258704146114  0.6196962716867354  1.0000
  O   O8        1.0  0.07696517945861568  0.4106765537068904  0.20059194722056106  1.0000
  O   O9        1.0  0.0772053664427959  0.21708457324200547  0.41780839051673213  1.0000
