data_image0
_chemical_formula_structural       NC8F2C7NH8C12H8C6H6Zn2C4O8
_chemical_formula_sum              "N2 C37 F2 H22 Zn2 O8"
_cell_length_a       17.998342126830877
_cell_length_b       13.024581838241813
_cell_length_c       10.681121600428288
_cell_angle_alpha    84.14087780974744
_cell_angle_beta     89.99986048050468
_cell_angle_gamma    93.73318089156965

_space_group_name_H-M_alt    "P 1"
_space_group_IT_number       1

loop_
  _space_group_symop_operation_xyz
  'x, y, z'

loop_
  _atom_site_type_symbol
  _atom_site_label
  _atom_site_symmetry_multiplicity
  _atom_site_fract_x
  _atom_site_fract_y
  _atom_site_fract_z
  _atom_site_occupancy
  N   N1        1.0  0.7528203976470714  0.12887023291347965  0.5842401055431596  1.0000
  C   C1        1.0  0.7007758332680472  0.10984638587421534  0.6480919312966862  1.0000
  C   C2        1.0  0.6360383521605735  0.08618360850064222  0.7275142102140371  1.0000
  C   C3        1.0  0.6001884431448725  0.9870432655465753  0.7370398281262858  1.0000
  C   C4        1.0  0.537222781555793  0.9640351265589155  0.8139623565259348  1.0000
  C   C5        1.0  0.5097974926866602  0.039701863933197634  0.8835261070835712  1.0000
  C   C6        1.0  0.5454951455787702  0.1396170209863912  0.8717018434865687  1.0000
  C   C7        1.0  0.6084531843335651  0.16246103456577243  0.7947254067466933  1.0000
  C   C8        1.0  0.4400278615092613  0.016051601811994495  0.962906521256782  1.0000
  F   F1        1.0  0.4351701716057249  0.9129595155390543  0.011633452002895452  1.0000
  F   F2        1.0  0.4427722567929284  0.07430064091056134  0.06469105320913016  1.0000
  C   C9        1.0  0.37248741199031005  0.039702093026471985  0.8835258012170211  1.0000
  C   C10       1.0  0.3462050197162944  0.1396171844639014  0.8717020561084716  1.0000
  C   C11       1.0  0.28539988194815247  0.16246121010616485  0.7947257329826765  1.0000
  C   C12       1.0  0.2506271976213102  0.08618383605992475  0.7275137019569169  1.0000
  C   C13       1.0  0.2771353300259418  0.9870439187453796  0.7370379871252004  1.0000
  C   C14       1.0  0.337932685185247  0.9640359143120234  0.8139604947017005  1.0000
  C   C15       1.0  0.18811967874012153  0.10984656683328664  0.6480916825122665  1.0000
  N   N2        1.0  0.13786792699217834  0.12887030467299931  0.5842399994517091  1.0000
  H   H1        1.0  0.6207025632972722  0.9276517477977861  0.6846126653215405  1.0000
  H   H2        1.0  0.5097931001233518  0.8872288683084574  0.8187699619001434  1.0000
  H   H3        1.0  0.524534103352081  0.20010681760200336  0.921658760676163  1.0000
  H   H4        1.0  0.6354046802184993  0.23970565375711783  0.7872303524765888  1.0000
  H   H5        1.0  0.37286590965091543  0.2001067767581508  0.9216596567066223  1.0000
  H   H6        1.0  0.26572712816265986  0.23970559922359877  0.7872312207163512  1.0000
  H   H7        1.0  0.25102511349562  0.9276526813196023  0.6846097630948889  1.0000
  H   H8        1.0  0.3581250791037343  0.8872301308727064  0.8187669907385782  1.0000
  C   C16       1.0  0.9310691894096595  0.8259643533041298  0.5934863848758758  1.0000
  C   C17       1.0  0.8980637237452713  0.7634614913499512  0.506139522582131  1.0000
  C   C18       1.0  0.9226300264670587  0.6651692342442541  0.4949682830861857  1.0000
  C   C19       1.0  0.9802017236811653  0.6273392387922113  0.5714961682246751  1.0000
  C   C20       1.0  0.013757534743824133  0.6898806354330559  0.6577996240877804  1.0000
  C   C21       1.0  0.989245210461121  0.7882042138846302  0.6690522395166496  1.0000
  C   C22       1.0  0.007076256063234699  0.5239051523341519  0.5582867229192745  1.0000
  C   C23       1.0  0.081758549976501  0.5182378884143147  0.5224927318244159  1.0000
  C   C24       1.0  0.10912200422128704  0.423813186400304  0.5008355715980628  1.0000
  C   C25       1.0  0.06234280925798807  0.33381249216934517  0.5143215519896109  1.0000
  C   C26       1.0  0.9882276729503583  0.3376036171489171  0.5510403656288849  1.0000
  C   C27       1.0  0.9596258827054983  0.43176823365552586  0.5750048343097365  1.0000
  H   H9        1.0  0.8533587684435379  0.7905464369284032  0.4462045432107385  1.0000
  H   H10       1.0  0.8968464616002163  0.6185182193935331  0.42649903074853834  1.0000
  H   H11       1.0  0.058647969599412215  0.662204949061755  0.7169558125245084  1.0000
  H   H12       1.0  0.015922589256698094  0.8345850507040483  0.7369021880894688  1.0000
  H   H13       1.0  0.1186501127131796  0.5876460996021435  0.5091092733885687  1.0000
  H   H14       1.0  0.16660782705339128  0.42056893833327413  0.4725923519880207  1.0000
  H   H15       1.0  0.08367072087343043  0.2606933498281782  0.4970776583387222  1.0000
  H   H16       1.0  0.7774500438885895  0.34671211597299306  0.6269532544760812  1.0000
  C   C28       1.0  0.9453475447002928  0.12886627726178523  0.2165003679280371  1.0000
  C   C29       1.0  0.8894639643801014  0.07149851082534919  0.15682803696732384  1.0000
  C   C30       1.0  0.8894639211099962  0.07149857696547057  0.02594589499666889  1.0000
  C   C31       1.0  0.9453474886758694  0.1288663278253656  0.951990802061824  1.0000
  C   C32       1.0  0.0011849353005435345  0.18618655356368882  0.011664003031914172  1.0000
  C   C33       1.0  0.001184925040757842  0.18618653756897527  0.1425563021829208  1.0000
  H   H17       1.0  0.0018606843708690556  0.18688085201909962  0.5079882210485003  1.0000
  H   H18       1.0  0.8456597757944256  0.026530944170458867  0.21123672757313416  1.0000
  H   H19       1.0  0.8456597625661362  0.02653099272450478  0.9827326968663419  1.0000
  H   H20       1.0  0.04499484667551745  0.23116004578614113  0.9572994670185452  1.0000
  H   H21       1.0  0.04499480753683938  0.23116000962658645  0.1857238356060964  1.0000
  H   H22       1.0  0.0018608993166988584  0.18688049264328785  0.6460592062986845  1.0000
  Zn  Zn1       1.0  0.8639366692095776  0.12886748889851507  0.5842473937545603  1.0000
  Zn  Zn2       1.0  0.026751251451807123  0.1288645970652751  0.5842432363633208  1.0000
  C   C34       1.0  0.9451521570278998  0.12475705592104823  0.8130927406841065  1.0000
  C   C35       1.0  0.9455376029138913  0.1329763315004182  0.35539797259610695  1.0000
  C   C36       1.0  0.954224224214495  0.3172584006912429  0.5735079192732566  1.0000
  C   C37       1.0  0.9364654217520237  0.9404737474459897  0.5949828985811152  1.0000
  O   O1        1.0  0.007388461505715596  0.13435010574384787  0.4020118371456809  1.0000
  O   O2        1.0  0.006873762403950766  0.1233803086891365  0.7664753840192435  1.0000
  O   O3        1.0  0.014198738466857591  0.27882757911768985  0.5730089129285632  1.0000
  O   O4        1.0  6.343023305244077e-05  0.9789028426951252  0.5954782141165285  1.0000
  O   O5        1.0  0.8906244348677583  0.2788292432707745  0.5730124159961498  1.0000
  O   O6        1.0  0.8832995172195507  0.12338321212856408  0.7664787825074699  1.0000
  O   O7        1.0  0.8838142146764024  0.13435297323823558  0.402013731107916  1.0000
  O   O8        1.0  0.8764891830529222  0.978905702811792  0.595480202193394  1.0000
