data_image0
_chemical_formula_structural       NC5NC3F3CH3C9H10C6NCOH5Zn2C4O8
_chemical_formula_sum              "N3 C29 F3 H18 O9 Zn2"
_cell_length_a       13.85151926108384
_cell_length_b       10.297183801781406
_cell_length_c       9.273733555595832
_cell_angle_alpha    86.14735742997276
_cell_angle_beta     90.01106478647557
_cell_angle_gamma    89.99762972311773

_space_group_name_H-M_alt    "P 1"
_space_group_IT_number       1

loop_
  _space_group_symop_operation_xyz
  'x, y, z'

loop_
  _atom_site_type_symbol
  _atom_site_label
  _atom_site_symmetry_multiplicity
  _atom_site_fract_x
  _atom_site_fract_y
  _atom_site_fract_z
  _atom_site_occupancy
  N   N1        1.0  0.9088331461340308  0.4063030922727209  0.40954950412515223  1.0000
  C   C1        1.0  0.8365119401679413  0.39872809667383247  0.47200521246450644  1.0000
  C   C2        1.0  0.7465386721788587  0.3893037669258724  0.5497090483494147  1.0000
  C   C3        1.0  0.6590026166477719  0.3968799739783868  0.47419833759941793  1.0000
  C   C4        1.0  0.5714866826727623  0.38930375489072944  0.5497090283017514  1.0000
  C   C5        1.0  0.48149268806034445  0.39872811213046844  0.4720053065019239  1.0000
  N   N2        1.0  0.40915496053542116  0.4063030591631198  0.40954960956991115  1.0000
  C   C6        1.0  0.5714975920189329  0.3732540864735232  0.7009068885222529  1.0000
  C   C7        1.0  0.6590429731886105  0.36281679644476017  0.7776808587105326  1.0000
  C   C8        1.0  0.6590644676545384  0.3503614629673135  0.940669753439611  1.0000
  F   F1        1.0  0.7400076092792843  0.2834694012077503  0.9922932536736702  1.0000
  F   F2        1.0  0.5781387946322233  0.28346937460463284  0.9922933529604401  1.0000
  F   F3        1.0  0.659067353997847  0.47319903937133795  0.9923148296278397  1.0000
  C   C9        1.0  0.746567918865031  0.37325400086163135  0.7009069081778596  1.0000
  H   H1        1.0  0.6589870814615229  0.40945050033176805  0.35713551855116865  1.0000
  H   H2        1.0  0.5033819251138079  0.36914727016470517  0.7585474468569302  1.0000
  H   H3        1.0  0.8146986786299785  0.3691471968963936  0.7585474058627497  1.0000
  C   C10       1.0  0.1590020730948558  0.02482950351113477  0.4097537428676459  1.0000
  C   C11       1.0  0.1561679236148235  0.03322284965761435  0.25809417750150776  1.0000
  C   C12       1.0  0.15471568265218585  0.920906518943534  0.18039454716942727  1.0000
  C   C13       1.0  0.15615653710873745  0.798046072358092  0.25750636748295674  1.0000
  C   C14       1.0  0.15899527828602253  0.7877668007052552  0.40935776003734925  1.0000
  C   C15       1.0  0.1603985990957173  0.9016250586525469  0.4844901965444832  1.0000
  C   C16       1.0  0.15165008275666209  0.9394167102766406  0.016364018314883877  1.0000
  C   C17       1.0  0.09511026123121337  0.8399239368235691  0.9361352165797278  1.0000
  C   C18       1.0  0.20509545392880746  0.8401878724486822  0.9315568485199232  1.0000
  H   H4        1.0  0.16010332871372168  0.3491337320114305  0.46819303791028566  1.0000
  H   H5        1.0  0.15507398828055613  0.1278855096863556  0.19954521797322977  1.0000
  H   H6        1.0  0.15509063801323178  0.7098958875396406  0.20058330123216672  1.0000
  H   H7        1.0  0.16258472105406988  0.8944219729807932  0.6014987359665915  1.0000
  H   H8        1.0  0.1643440367240132  0.5611357010276724  0.6961622826807567  1.0000
  H   H9        1.0  0.15066563138350442  0.03962241908738263  0.9636417227759795  1.0000
  H   H10       1.0  0.06290372995946458  0.7569207027865632  0.0017232083621054857  1.0000
  H   H11       1.0  0.06103777314685499  0.8798108117640591  0.8341666193311745  1.0000
  H   H12       1.0  0.23969902109225893  0.7573457721201174  0.9943644799334632  1.0000
  H   H13       1.0  0.23530447056740234  0.8802266259594534  0.8269110668607405  1.0000
  C   C19       1.0  0.15894346174856724  0.40220531995014586  0.9863308854686759  1.0000
  C   C20       1.0  0.07021235133363724  0.39474929017582316  0.06028621206235241  1.0000
  C   C21       1.0  0.9823591153936233  0.3978206956134451  0.9853351276574291  1.0000
  C   C22       1.0  0.9832112188955587  0.41257073068102446  0.8339797377097251  1.0000
  C   C23       1.0  0.07049070534568537  0.4180883222091467  0.7588214245209044  1.0000
  C   C24       1.0  0.15905386917996966  0.4103909630316511  0.8327806697088493  1.0000
  N   N3        1.0  0.8933418499994787  0.39326450549665104  0.06535197256832714  1.0000
  C   C25       1.0  0.8063646445434446  0.33344465483617025  0.018600590684962674  1.0000
  O   O1        1.0  0.8058576016268606  0.2646981897598055  0.9112854379990303  1.0000
  H   H14       1.0  0.38644016538602455  0.4924072725713093  0.0825975323886301  1.0000
  H   H15       1.0  0.9165370709086175  0.4212198511640215  0.7733606320099375  1.0000
  H   H16       1.0  0.3130380489163167  0.4656529147381372  0.5476457598650217  1.0000
  H   H17       1.0  0.8929957972680267  0.4278049286614043  0.1687530445482166  1.0000
  H   H18       1.0  0.740379414660666  0.34433914469886884  0.07901577304332186  1.0000
  Zn  Zn1       1.0  0.05321521551661925  0.40629969509656716  0.4095578434393381  1.0000
  Zn  Zn2       1.0  0.2647728753245633  0.40629597427716596  0.40955302678199357  1.0000
  C   C26       1.0  0.15903089377705482  0.4036686161053303  0.6727862029203526  1.0000
  C   C27       1.0  0.158959507271012  0.4089286936652854  0.14632480785386526  1.0000
  C   C28       1.0  0.15899083064848377  0.6434998686754174  0.4036894765574126  1.0000
  C   C29       1.0  0.1589994982336982  0.16909588110849172  0.4154216118661478  1.0000
  O   O2        1.0  0.23924992170062528  0.41117803997405056  0.20001840481374944  1.0000
  O   O3        1.0  0.2393078479852715  0.4014154617771031  0.619088535861245  1.0000
  O   O4        1.0  0.23927441441716105  0.5950822458188527  0.40179102474282047  1.0000
  O   O5        1.0  0.23928328306425872  0.2175112641813239  0.4173158078672712  1.0000
  O   O6        1.0  0.07870473558267665  0.5950844051950199  0.40179506234812257  1.0000
  O   O7        1.0  0.0787381691224245  0.4014191811425871  0.6190924958112676  1.0000
  O   O8        1.0  0.07868024267636886  0.41118169731427406  0.20002063201987408  1.0000
  O   O9        1.0  0.07871360405023167  0.2175149132751346  0.4173181431323607  1.0000
