data_image0
_chemical_formula_structural       NC5NC3F3CH3C6ClH5C7OH5Zn2C4O8
_chemical_formula_sum              "N2 C26 F3 H13 Cl1 O9 Zn2"
_cell_length_a       13.85151926108384
_cell_length_b       10.30297070629231
_cell_length_c       9.274074313596556
_cell_angle_alpha    86.12141784095925
_cell_angle_beta     90.23361225849852
_cell_angle_gamma    89.9983157295073

_space_group_name_H-M_alt    "P 1"
_space_group_IT_number       1

loop_
  _space_group_symop_operation_xyz
  'x, y, z'

loop_
  _atom_site_type_symbol
  _atom_site_label
  _atom_site_symmetry_multiplicity
  _atom_site_fract_x
  _atom_site_fract_y
  _atom_site_fract_z
  _atom_site_occupancy
  N   N1        1.0  0.9047113650229075  0.40678839554968715  0.41022617660906824  1.0000
  C   C1        1.0  0.8325525097411296  0.3991660680155713  0.4726800446262853  1.0000
  C   C2        1.0  0.7427812292291924  0.3896828505402965  0.5503815909123232  1.0000
  C   C3        1.0  0.655048870821899  0.3973172220764113  0.47487228394701586  1.0000
  C   C4        1.0  0.5677292396708341  0.3896828385289315  0.5503815708577418  1.0000
  C   C5        1.0  0.4775332578782562  0.3991660833850019  0.4726801386748752  1.0000
  N   N2        1.0  0.4050331796981866  0.4067883623722323  0.410226282040173  1.0000
  C   C6        1.0  0.5681332043762014  0.373517227150469  0.7015761637040447  1.0000
  C   C7        1.0  0.6558781442649597  0.3630224220891778  0.7783472873860622  1.0000
  C   C8        1.0  0.6563233961750656  0.3504392284188582  0.9413351751939788  1.0000
  F   F1        1.0  0.7374001050555165  0.2835440213752375  0.9929256842940798  1.0000
  F   F2        1.0  0.5755312906663969  0.2835439947055163  0.9929257835703664  1.0000
  F   F3        1.0  0.6564618635876185  0.4731610587858619  0.9930457387191883  1.0000
  C   C9        1.0  0.7432035312725344  0.37351714157306753  0.701576183315874  1.0000
  H   H1        1.0  0.6547290195348542  0.4099774300154051  0.3578120695131286  1.0000
  H   H2        1.0  0.5001674011587407  0.3693650166334413  0.7592165206065993  1.0000
  H   H3        1.0  0.8114841545675412  0.3693649434426236  0.7592164795730165  1.0000
  C   C10       1.0  0.15487688696222596  0.025540998269117043  0.4102324211801385  1.0000
  C   C11       1.0  0.2546403261385328  0.022643231947888857  0.43799309235338524  1.0000
  C   C12       1.0  0.3041402816544643  0.9042485928417218  0.4517670956987194  1.0000
  C   C13       1.0  0.2546403251826763  0.7875352626790318  0.4379930245699626  1.0000
  C   C14       1.0  0.15487689749048128  0.7880259408108384  0.41023250368534075  1.0000
  C   C15       1.0  0.10548147953525366  0.9076223679291342  0.396487457193409  1.0000
  Cl  Cl1       1.0  0.42876858615347024  0.9021321083598095  0.4864466887583758  1.0000
  H   H4        1.0  0.1172977445147727  0.353935647284149  0.3997746556444526  1.0000
  H   H5        1.0  0.29431867009757595  0.11201598327349634  0.44903406220558106  1.0000
  H   H6        1.0  0.29431863163638705  0.6968147895303937  0.4490339586551897  1.0000
  H   H7        1.0  0.028540887645382984  0.9089288857285533  0.37507754870308263  1.0000
  H   H8        1.0  0.11729774054992648  0.4609076830124427  0.39977492776002466  1.0000
  C   C16       1.0  0.15372097176061966  0.4030442489302626  0.9869912589273332  1.0000
  C   C17       1.0  0.06954563960180572  0.44137301958695274  0.05688010328490734  1.0000
  C   C18       1.0  0.9901243050047576  0.4901354880835156  0.9776978639533002  1.0000
  C   C19       1.0  0.9930204905997286  0.5018662013157722  0.8264178630705432  1.0000
  C   C20       1.0  0.07589232386791256  0.4619700273268572  0.7553891325648476  1.0000
  C   C21       1.0  0.15603280018813614  0.41052261395643397  0.8334736654464328  1.0000
  C   C22       1.0  0.9099768873209572  0.5541989016065552  0.7410271479525559  1.0000
  O   O1        1.0  0.8343244794041802  0.5903719573057613  0.8017334175564543  1.0000
  H   H9        1.0  0.38960696674329803  0.369967421404963  0.0937798555358571  1.0000
  H   H10       1.0  0.926780661337597  0.5198558394951491  0.035099510473457045  1.0000
  H   H11       1.0  0.07701100118555138  0.46826163229121054  0.6382324699555757  1.0000
  H   H12       1.0  0.31459236469052576  0.38353898371728645  0.5560078583360308  1.0000
  H   H13       1.0  0.9134050307905048  0.5620792618499753  0.624157631300239  1.0000
  Zn  Zn1       1.0  0.04909345605853522  0.4067849934692613  0.4102345144392294  1.0000
  Zn  Zn2       1.0  0.26065110330138364  0.4067812788546869  0.41022969568932877  1.0000
  C   C23       1.0  0.15559368636725424  0.4039370442683878  0.6734703228729424  1.0000
  C   C24       1.0  0.15415318358201135  0.4096308673624225  0.1469940286646445  1.0000
  C   C25       1.0  0.15485625682131507  0.6438492855362178  0.40448906802077333  1.0000
  C   C26       1.0  0.1548905411479118  0.16971706696912436  0.41597536035905636  1.0000
  O   O2        1.0  0.23458326240406113  0.41183432306409595  0.20069059114113785  1.0000
  O   O3        1.0  0.23573096555861597  0.4017297861843147  0.6197696881844079  1.0000
  O   O4        1.0  0.23513440368667649  0.5954619683715485  0.40256542182898314  1.0000
  O   O5        1.0  0.23517975179056372  0.21810214921066426  0.4178947494323231  1.0000
  O   O6        1.0  0.07456473537509178  0.5954641231158978  0.4025694606902983  1.0000
  O   O7        1.0  0.07516129703280729  0.4017335000567457  0.6197736501975439  1.0000
  O   O8        1.0  0.07401358920984746  0.41183797638593234  0.2006928203201586  1.0000
  O   O9        1.0  0.0746100788875244  0.21810579420131201  0.4178970866696474  1.0000
