data_image0
_chemical_formula_structural       NC5NC3BrH3C6BrH5C7F3H5Zn2C4O8
_chemical_formula_sum              "N2 C25 Br2 H13 F3 Zn2 O8"
_cell_length_a       13.839083392302014
_cell_length_b       9.276564384272257
_cell_length_c       10.299327507215196
_cell_angle_alpha    85.50433020317719
_cell_angle_beta     89.98220145889688
_cell_angle_gamma    90.61189963838827

_space_group_name_H-M_alt    "P 1"
_space_group_IT_number       1

loop_
  _space_group_symop_operation_xyz
  'x, y, z'

loop_
  _atom_site_type_symbol
  _atom_site_label
  _atom_site_symmetry_multiplicity
  _atom_site_fract_x
  _atom_site_fract_y
  _atom_site_fract_z
  _atom_site_occupancy
  N   N1        1.0  0.9210735505124854  0.5790743582910995  0.5662193209159203  1.0000
  C   C1        1.0  0.8486340269802536  0.515426757730904  0.5684881544827383  1.0000
  C   C2        1.0  0.7583809766290266  0.4362271365487165  0.5713112257942423  1.0000
  C   C3        1.0  0.6713476349231119  0.5124343681397321  0.5685949932142497  1.0000
  C   C4        1.0  0.5827879180770799  0.4376999991363153  0.5712586749276998  1.0000
  C   C5        1.0  0.49356829851971373  0.5162588499461127  0.5684584793321065  1.0000
  N   N2        1.0  0.42184732966429495  0.5794140072950886  0.5662071640565149  1.0000
  C   C6        1.0  0.5811935713602628  0.28644686610207626  0.5766497363253386  1.0000
  C   C7        1.0  0.6677810346609525  0.21011835532973522  0.579370209337148  1.0000
  C   C8        1.0  0.7565318765150666  0.2841385321151142  0.5767320014984851  1.0000
  Br  Br1       1.0  0.8731789350068625  0.17403770629095525  0.5806563658860813  1.0000
  H   H1        1.0  0.6725280282744729  0.6296427451673083  0.564417197222317  1.0000
  H   H2        1.0  0.5130950183963254  0.2275886691323752  0.5787473568376167  1.0000
  H   H3        1.0  0.6658391553282389  0.09315920845678648  0.5835387821116625  1.0000
  C   C9        1.0  0.1685537027372599  0.15576118202315015  0.5665454348009304  1.0000
  C   C10       1.0  0.15619963170627726  0.2392703258395772  0.4478447068694032  1.0000
  C   C11       1.0  0.15283806265083877  0.17429724042473338  0.3302524878866003  1.0000
  C   C12       1.0  0.16180963964554507  0.02489633705340145  0.32912816213020046  1.0000
  C   C13       1.0  0.1724618608708386  0.9396929857109718  0.44603397133674744  1.0000
  C   C14       1.0  0.17437634661342538  0.002716033766862141  0.5658922704644573  1.0000
  Br  Br2       1.0  0.1579214814455956  0.9365607120370623  0.16777107434514216  1.0000
  H   H4        1.0  0.14016697181707216  0.41826189674001624  0.7776901469668249  1.0000
  H   H5        1.0  0.15143162260248855  0.35592382632816544  0.4456214189504242  1.0000
  H   H6        1.0  0.1441768734277724  0.24052549557694736  0.23978797454427903  1.0000
  H   H7        1.0  0.1769334172129715  0.8234564660232293  0.4432338051659306  1.0000
  H   H8        1.0  0.22763183344235438  0.7047884182573757  0.7681657198827263  1.0000
  C   C15       1.0  0.17155795908428464  0.5792972593912924  0.18483724544873037  1.0000
  C   C16       1.0  0.2658568233714078  0.6371838593029573  0.17951990881204563  1.0000
  C   C17       1.0  0.3127381218417593  0.668832601544515  0.05953940343672781  1.0000
  C   C18       1.0  0.2656127942245772  0.6370307712981089  0.9442825749665862  1.0000
  C   C19       1.0  0.17137211702925037  0.5791800084363612  0.9476005165488828  1.0000
  C   C20       1.0  0.12475140019222652  0.5511832707480038  0.0683507668336849  1.0000
  C   C21       1.0  0.4152608702431666  0.7260877958726142  0.055230495872565344  1.0000
  F   F1        1.0  0.43271849049929334  0.8103125305429602  0.15805630969133144  1.0000
  F   F2        1.0  0.4782970412773726  0.6111526484166636  0.06318657163977216  1.0000
  F   F3        1.0  0.4324529002179862  0.8102927846199963  0.9404129275441395  1.0000
  H   H9        1.0  0.9942438744089177  0.46764786468253067  0.40227962020585983  1.0000
  H   H10       1.0  0.30305264516042413  0.6574919347650059  0.26889990039644723  1.0000
  H   H11       1.0  0.3026412063898467  0.6572299601375389  0.8518860915581339  1.0000
  H   H12       1.0  0.052070010842757634  0.5065704078521664  0.07164415302719673  1.0000
  H   H13       1.0  0.13575552631294618  0.5545725874537164  0.6215888033629349  1.0000
  Zn  Zn1       1.0  0.0655860204085621  0.5791685060545  0.5662233213938181  1.0000
  Zn  Zn2       1.0  0.2773347680516953  0.5793080378584516  0.5662138309530969  1.0000
  C   C22       1.0  0.1713655671574505  0.5734571491432712  0.8034263447617173  1.0000
  C   C23       1.0  0.17155754607065335  0.5850212158439531  0.32901093354911964  1.0000
  C   C24       1.0  0.1732720269444803  0.8426243530693167  0.5608404235290423  1.0000
  C   C25       1.0  0.1696510021004043  0.31585227925490855  0.5715969253620524  1.0000
  O   O1        1.0  0.2519149104001157  0.5869888881090886  0.37739334359727406  1.0000
  O   O2        1.0  0.25172059536855507  0.5715942904343003  0.7550363586690834  1.0000
  O   O3        1.0  0.25325900216982  0.7889502107670396  0.559146509830306  1.0000
  O   O4        1.0  0.2503764314379977  0.3696329780598373  0.5732830950534207  1.0000
  O   O5        1.0  0.09254428476281683  0.7888435658070696  0.5591540572899009  1.0000
  O   O6        1.0  0.09100588988532876  0.5714893780912851  0.7550438355448263  1.0000
  O   O7        1.0  0.09120020501617354  0.5868839257526672  0.37739925905902655  1.0000
  O   O8        1.0  0.08966172595546618  0.3695280053738834  0.5732891078942104  1.0000
