data_image0
_chemical_formula_structural       NC9NC3OH6C7OC4NC3H8C7OC2NC3H11Zn2C4O8
_chemical_formula_sum              "N4 C42 O11 H25 Zn2"
_cell_length_a       15.78231758774541
_cell_length_b       10.299371701877257
_cell_length_c       10.298749378158433
_cell_angle_alpha    85.57636868446646
_cell_angle_beta     90.0928215232676
_cell_angle_gamma    89.64160960478581

_space_group_name_H-M_alt    "P 1"
_space_group_IT_number       1

loop_
  _space_group_symop_operation_xyz
  'x, y, z'

loop_
  _atom_site_type_symbol
  _atom_site_label
  _atom_site_symmetry_multiplicity
  _atom_site_fract_x
  _atom_site_fract_y
  _atom_site_fract_z
  _atom_site_occupancy
  N   N1        1.0  0.7978760408416381  0.4133818679064589  0.5702895454730599  1.0000
  C   C1        1.0  0.7493378975088355  0.3313163300464199  0.5943426059205181  1.0000
  C   C2        1.0  0.6890759912450051  0.22945304970403324  0.6241986509538853  1.0000
  C   C3        1.0  0.7087290513820727  0.1014963605035446  0.6616232384574698  1.0000
  C   C4        1.0  0.6319938619752052  0.03948353438373786  0.6798352158972653  1.0000
  C   C5        1.0  0.5702202647708375  0.13418612583133238  0.6521780216142332  1.0000
  C   C6        1.0  0.477127988565173  0.11667705723811461  0.6573831879727982  1.0000
  C   C7        1.0  0.42339086788173746  0.22403432710109628  0.625865246128533  1.0000
  C   C8        1.0  0.3351833211911904  0.20967731009133606  0.6301405190442019  1.0000
  C   C9        1.0  0.2807499344693031  0.3201581960262856  0.597697299218998  1.0000
  N   N2        1.0  0.23699838511579482  0.40897057444113694  0.5716158485760265  1.0000
  C   C10       1.0  0.300031596294031  0.08780323683198679  0.6659826758985058  1.0000
  C   C11       1.0  0.35283780145905935  0.9806679247823958  0.6974398127410337  1.0000
  C   C12       1.0  0.4408596566215059  0.9946305316001555  0.6932807164297785  1.0000
  O   O1        1.0  0.6066870388680724  0.24642101404884606  0.619303184182911  1.0000
  H   H1        1.0  0.7711862398512407  0.058344778308370156  0.674193298051278  1.0000
  H   H2        1.0  0.6232541258943478  0.9375181894902003  0.7096731137197732  1.0000
  H   H3        1.0  0.45000337993124045  0.3188739664958251  0.5979689707740288  1.0000
  H   H4        1.0  0.2319144066618325  0.07564358966605123  0.6696014871307552  1.0000
  H   H5        1.0  0.3254950219068928  0.8864766583505646  0.7251457983103115  1.0000
  H   H6        1.0  0.4799397824674266  0.9097718190149056  0.718205234710793  1.0000
  C   C13       1.0  0.017396923297241282  0.029806209892202725  0.5708255641822304  1.0000
  C   C14       1.0  0.021499904004275143  0.03911700772084825  0.4341644428878353  1.0000
  C   C15       1.0  0.022607215907481937  0.9266538739594391  0.36517105319097976  1.0000
  C   C16       1.0  0.021510417698387577  0.8038485605173398  0.4344818905353034  1.0000
  C   C17       1.0  0.017485589695059183  0.7925361555704962  0.5710910607625228  1.0000
  C   C18       1.0  0.015229198192044047  0.9061186544643774  0.6384559731239438  1.0000
  C   C19       1.0  0.027829556678041767  0.9363327322539865  0.22092774065437212  1.0000
  O   O2        1.0  0.06860497425149309  0.8501807668008241  0.16610156099368353  1.0000
  C   C20       1.0  0.9867804637528587  0.04366504259007731  0.13888640845450093  1.0000
  C   C21       1.0  0.023057366397719603  0.08795467093269993  0.019018137660161243  1.0000
  C   C22       1.0  0.9842432833518997  0.1882542150093167  0.9401051564571157  1.0000
  C   C23       1.0  0.02216375743706123  0.2337115616512195  0.8180555627283574  1.0000
  N   N3        1.0  0.05265013145794192  0.27024965440520465  0.7199453997273011  1.0000
  C   C24       1.0  0.9085196011600416  0.24419006990670877  0.9800508224894474  1.0000
  C   C25       1.0  0.8715272494844966  0.19969714346733358  0.09817727285520084  1.0000
  C   C26       1.0  0.9100980495645948  0.0996975186955673  0.17707812093765882  1.0000
  H   H7        1.0  0.024788308561917813  0.1340120107024514  0.3812844146245997  1.0000
  H   H8        1.0  0.0229920878971661  0.7170004671165658  0.3814707611397887  1.0000
  H   H9        1.0  0.012066563479836702  0.8981368133389284  0.7438119582438323  1.0000
  H   H10       1.0  0.016652602806279893  0.4607228638222136  0.6236171282744298  1.0000
  H   H11       1.0  0.08181480487079978  0.04527583501360778  0.9876167212450739  1.0000
  H   H12       1.0  0.8779683191167346  0.3217181113172963  0.9197152593012095  1.0000
  H   H13       1.0  0.8126250140960658  0.2423937131125402  0.1284251730330066  1.0000
  H   H14       1.0  0.8794955511543332  0.06528771714287185  0.26714771201454535  1.0000
  C   C27       1.0  0.017402179612804325  0.4111995895084446  0.18955714989280856  1.0000
  C   C28       1.0  0.06369862946713019  0.5275995817246113  0.17971793605737663  1.0000
  C   C29       1.0  0.08625884225027125  0.5872689075806825  0.05750157667051447  1.0000
  C   C30       1.0  0.0637020026233221  0.5276484093963729  0.9444739338160963  1.0000
  C   C31       1.0  0.01748030666450418  0.4111427721801583  0.9523594761252385  1.0000
  C   C32       1.0  0.9944290885615417  0.35384021436615853  0.07532388969835191  1.0000
  C   C33       1.0  0.13583458765756706  0.7095391722821733  0.04701386888600734  1.0000
  O   O3        1.0  0.18878066493607426  0.727350142448502  0.955833247713012  1.0000
  C   C34       1.0  0.12534768380975692  0.8115956076493227  0.13990733494898633  1.0000
  C   C35       1.0  0.03661461750894854  0.9325633508282862  0.2830856318390406  1.0000
  N   N4        1.0  0.955946521488549  0.9552254069244837  0.3405217410844396  1.0000
  C   C36       1.0  0.10654096708634997  0.008112207930537789  0.31272102209214214  1.0000
  C   C37       1.0  0.1851399751815368  0.9866992152069683  0.2557876420511982  1.0000
  C   C38       1.0  0.19455776800763935  0.8894139879099897  0.16945881908765914  1.0000
  H   H15       1.0  0.9310475095770528  0.19023594304802693  0.41559187582862983  1.0000
  H   H16       1.0  0.08305428704090718  0.5712510665908535  0.267337794183812  1.0000
  H   H17       1.0  0.081576859189749  0.5729909287615007  0.8501374389898125  1.0000
  H   H18       1.0  0.9587469136110118  0.26411439117165636  0.08215636926965009  1.0000
  H   H19       1.0  0.9304512572955316  0.19076489041333833  0.7599757525872333  1.0000
  H   H20       1.0  0.9914037502710528  0.7785078567794083  0.17215207871106375  1.0000
  H   H21       1.0  0.9033988560071251  0.8994810852154304  0.31911545820363973  1.0000
  H   H22       1.0  0.9481915377754689  0.02782188731706148  0.40501125995618237  1.0000
  H   H23       1.0  0.10003898485505025  0.0837920680381119  0.3794607440627986  1.0000
  H   H24       1.0  0.2389125276027377  0.04562623342439842  0.2786070848797617  1.0000
  H   H25       1.0  0.2561114715599746  0.8741509059934705  0.1266391755139218  1.0000
  Zn  Zn1       1.0  0.9245972605538748  0.41210539435715  0.5706797807915169  1.0000
  Zn  Zn2       1.0  0.11027713676654316  0.4102364477000826  0.5712362267848348  1.0000
  C   C39       1.0  0.01746306556978671  0.4059798568498798  0.8081716987476038  1.0000
  C   C40       1.0  0.0174133595726491  0.4163636034131568  0.3337444429527434  1.0000
  C   C41       1.0  0.017463936122559698  0.6483644051178871  0.5658652573843487  1.0000
  C   C42       1.0  0.017412425486027932  0.17397749547082153  0.5760509528274761  1.0000
  O   O4        1.0  0.08788165635458545  0.41738177238001395  0.3823461820531566  1.0000
  O   O5        1.0  0.0879214983411929  0.40354222091740355  0.7599919150621515  1.0000
  O   O6        1.0  0.08792125156615288  0.5992708184753621  0.5643277469264082  1.0000
  O   O7        1.0  0.08788183976076414  0.2216531847572991  0.5780102526193536  1.0000
  O   O8        1.0  0.9469924941962244  0.6006886579391275  0.5639057547602787  1.0000
  O   O9        1.0  0.9469927411416826  0.4049616206946911  0.759569854187826  1.0000
  O   O10       1.0  0.9469528990461853  0.4188011270169063  0.3819225596305229  1.0000
  O   O11       1.0  0.9469530824577957  0.22307253009814196  0.5775867275695467  1.0000
