data_image0
_chemical_formula_structural       NC9NC3OH6C12H10C8NH11Zn2C4O8
_chemical_formula_sum              "N3 C36 O9 H27 Zn2"
_cell_length_a       15.78231758774541
_cell_length_b       10.299137764757564
_cell_length_c       9.27565297233854
_cell_angle_alpha    85.91964994455579
_cell_angle_beta     90.52078220685846
_cell_angle_gamma    89.65025930418041

_space_group_name_H-M_alt    "P 1"
_space_group_IT_number       1

loop_
  _space_group_symop_operation_xyz
  'x, y, z'

loop_
  _atom_site_type_symbol
  _atom_site_label
  _atom_site_symmetry_multiplicity
  _atom_site_fract_x
  _atom_site_fract_y
  _atom_site_fract_z
  _atom_site_occupancy
  N   N1        1.0  0.7910824752590371  0.4039586687226146  0.41221420109597573  1.0000
  C   C1        1.0  0.7426531373884586  0.32204748833263686  0.43897221630008504  1.0000
  C   C2        1.0  0.6825262868483816  0.2203758054648219  0.4721858061556208  1.0000
  C   C3        1.0  0.7023486139844758  0.0926592645121349  0.5138192917194979  1.0000
  C   C4        1.0  0.6256958192047443  0.030763320320249053  0.5340792517393576  1.0000
  C   C5        1.0  0.5637971450587117  0.1252884496034965  0.5033115238171334  1.0000
  C   C6        1.0  0.4707284382913735  0.10781280243150704  0.5091018563657117  1.0000
  C   C7        1.0  0.4168487276090465  0.2149677971868795  0.4740396140347771  1.0000
  C   C8        1.0  0.32866054198770245  0.2006382326483933  0.4787954954519815  1.0000
  C   C9        1.0  0.27408037658154305  0.31091090323589826  0.44270394640936717  1.0000
  N   N2        1.0  0.23021082986454292  0.39955589479677805  0.41368956840023774  1.0000
  C   C10       1.0  0.2936709902287162  0.07899420156322988  0.5186680595930213  1.0000
  C   C11       1.0  0.3466195117027136  0.972060775451673  0.5536626475958069  1.0000
  C   C12       1.0  0.43462253151303076  0.9859966754877634  0.5490360062136372  1.0000
  O   O1        1.0  0.6001152145155427  0.23731237278158068  0.46673959855444075  1.0000
  H   H1        1.0  0.7648626389824625  0.049588330142605885  0.5278031593648309  1.0000
  H   H2        1.0  0.617091041319185  0.9289894446958078  0.5672727817012209  1.0000
  H   H3        1.0  0.44333501732444236  0.30962839152332333  0.4430064487236596  1.0000
  H   H4        1.0  0.2255701881317323  0.06685779107246767  0.5226936881882362  1.0000
  H   H5        1.0  0.3194020936156659  0.8780473328553323  0.5844841242253597  1.0000
  H   H6        1.0  0.47381542187025916  0.9012979257466981  0.5767633407833815  1.0000
  C   C13       1.0  0.010569841605193801  0.020359101016814714  0.41310874704307854  1.0000
  C   C14       1.0  0.00985571137736341  0.0293112957351711  0.26133603117907067  1.0000
  C   C15       1.0  0.009576681775198107  0.9167169201895725  0.1842260631449517  1.0000
  C   C16       1.0  0.010021383971655636  0.7940520733295662  0.26094022886395507  1.0000
  C   C17       1.0  0.010731594149464339  0.7831454776813315  0.41280751650638037  1.0000
  C   C18       1.0  0.011002871156381879  0.8968109407430804  0.48795682167314136  1.0000
  C   C19       1.0  0.008820199067252062  0.927232381351  0.023665521331995624  1.0000
  C   C20       1.0  0.0595778556129436  0.8439449074454022  0.9462963616542805  1.0000
  C   C21       1.0  0.058760474892310476  0.8540944791392215  0.7951615791666362  1.0000
  C   C22       1.0  0.007390385649866266  0.9471463719828405  0.7196881210546092  1.0000
  C   C23       1.0  0.9567305395404726  0.030307394508165986  0.795196235091177  1.0000
  C   C24       1.0  0.9573348708771858  0.020654861534175062  0.9463312757592007  1.0000
  H   H7        1.0  0.010801300382218488  0.3443918655366217  0.47149042463547414  1.0000
  H   H8        1.0  0.010687373158847715  0.12407900459972998  0.20273756430037995  1.0000
  H   H9        1.0  0.008641746244778535  0.706944756556586  0.20206077861288585  1.0000
  H   H10       1.0  0.01155137651686821  0.8891904012862869  0.605022592317153  1.0000
  H   H11       1.0  0.011533291670373418  0.5552736863339076  0.699447245640677  1.0000
  H   H12       1.0  0.10066862864143195  0.7722047922157524  0.0026167762929774135  1.0000
  H   H13       1.0  0.09816974122636712  0.7899389399788566  0.7365235658397156  1.0000
  H   H14       1.0  0.006840204152558813  0.9548105568749591  0.6026997306268012  1.0000
  H   H15       1.0  0.9167698721495778  0.10214421238720917  0.7365837094113613  1.0000
  H   H16       1.0  0.9167743027036388  0.08501569408785259  0.00267088023163797  1.0000
  C   C25       1.0  0.008763843746478315  0.39923986741159234  0.989682048785018  1.0000
  C   C26       1.0  0.9538215721737893  0.4847479633271339  0.05561097201642684  1.0000
  C   C27       1.0  0.9055713393451736  0.5777677891740614  0.9727122070054826  1.0000
  C   C28       1.0  0.9111185477447208  0.5840397514946123  0.8219429644058835  1.0000
  C   C29       1.0  0.964195176447655  0.49860817477954145  0.7545996728594235  1.0000
  C   C30       1.0  0.012537625128769882  0.4042647217934498  0.8362341886085459  1.0000
  C   C31       1.0  0.846118950140912  0.6672189067814862  0.04502103330242835  1.0000
  C   C32       1.0  0.7589822769292547  0.604634072893317  0.06554074186307735  1.0000
  N   N3        1.0  0.7015312305278563  0.6929813561549999  0.13352088654572247  1.0000
  H   H17       1.0  0.07083064084228113  0.20565107976424168  0.28657416282084935  1.0000
  H   H18       1.0  0.9497902860999107  0.481174897173596  0.1724263882799435  1.0000
  H   H19       1.0  0.8735609772856447  0.6543734264953234  0.7562059028368555  1.0000
  H   H20       1.0  0.9657261719304179  0.5041708517826287  0.6375827360931773  1.0000
  H   H21       1.0  0.12871417418345077  0.28414360839707165  0.5661914387933775  1.0000
  H   H22       1.0  0.8726598378279229  0.6897740200375693  0.1518154767776807  1.0000
  H   H23       1.0  0.8393552523695268  0.7610551070110145  0.9786517129022583  1.0000
  H   H24       1.0  0.7324862067464759  0.5831220509080011  0.9583288817359885  1.0000
  H   H25       1.0  0.7649439689301846  0.5115531391438841  0.13379024767642878  1.0000
  H   H26       1.0  0.6416738465614992  0.6499667099567004  0.13773986488253076  1.0000
  H   H27       1.0  0.7213743061222755  0.6992830952728314  0.24070491058584922  1.0000
  Zn  Zn1       1.0  0.917805465397838  0.4026847033960212  0.41264827849507  1.0000
  Zn  Zn2       1.0  0.10348786151093575  0.4008193297788638  0.4132672780930169  1.0000
  C   C33       1.0  0.011821289880341358  0.3981408528754218  0.6762197512678387  1.0000
  C   C34       1.0  0.009474065652602668  0.40536479951470866  0.14969595290576088  1.0000
  C   C35       1.0  0.010671059046220451  0.6389285670464159  0.4071205754719056  1.0000
  C   C36       1.0  0.010624233137958681  0.1645755260140575  0.4187952059537281  1.0000
  O   O2        1.0  0.08017792304364142  0.4067068169380205  0.20363299023297277  1.0000
  O   O3        1.0  0.08204607268352015  0.39538207777794643  0.6227521057732115  1.0000
  O   O4        1.0  0.08111630351084971  0.5898212205862965  0.40545261369663677  1.0000
  O   O5        1.0  0.0811076283756833  0.21226768341563604  0.4209323740198607  1.0000
  O   O6        1.0  0.9401856351687686  0.5912363503971784  0.40498318234940944  1.0000
  O   O7        1.0  0.9411154043258818  0.39679876755641524  0.622282596955134  1.0000
  O   O8        1.0  0.9392472470075047  0.4081234511701228  0.20316174845597046  1.0000
  O   O9        1.0  0.9401769528158528  0.21368430899970228  0.42046124031372933  1.0000
