data_image0
_chemical_formula_structural       NC9NC3OCH8C16H10C12IH9Zn2C4O8
_chemical_formula_sum              "N2 C45 O9 H27 I1 Zn2"
_cell_length_a       17.728193572023454
_cell_length_b       10.299148015769429
_cell_length_c       10.299773350644648
_cell_angle_alpha    85.52085607386434
_cell_angle_beta     90.71329701694225
_cell_angle_gamma    88.46752555428026

_space_group_name_H-M_alt    "P 1"
_space_group_IT_number       1

loop_
  _space_group_symop_operation_xyz
  'x, y, z'

loop_
  _atom_site_type_symbol
  _atom_site_label
  _atom_site_symmetry_multiplicity
  _atom_site_fract_x
  _atom_site_fract_y
  _atom_site_fract_z
  _atom_site_occupancy
  N   N1        1.0  0.7106628102892306  0.38744699474857147  0.5846241242863897  1.0000
  C   C1        1.0  0.6500435611183014  0.35001230014283746  0.5976442573121536  1.0000
  C   C2        1.0  0.5745809463535126  0.3034759733887893  0.6138489591181899  1.0000
  C   C3        1.0  0.5626556395347498  0.1754255115464263  0.623319916212457  1.0000
  C   C4        1.0  0.48593582237490557  0.12596584135342503  0.6382902507676207  1.0000
  C   C5        1.0  0.42780727804643076  0.20863663025825874  0.6557276997544084  1.0000
  C   C6        1.0  0.3497507807828902  0.16357879285100907  0.6774799279938062  1.0000
  C   C7        1.0  0.2884246643065848  0.2490645170798929  0.6419842147503505  1.0000
  C   C8        1.0  0.21414320563678604  0.20975279504108513  0.6621479601411433  1.0000
  C   C9        1.0  0.1518386896644644  0.2977761425098598  0.624576876339695  1.0000
  N   N2        1.0  0.1017592667696924  0.3685383853761796  0.5943732765651004  1.0000
  C   C10       1.0  0.2005564748466191  0.08483516997445317  0.7188615626825339  1.0000
  C   C11       1.0  0.26098412722079944  0.9996665962247997  0.7557657269338147  1.0000
  C   C12       1.0  0.3351618578745307  0.03848861588357289  0.7357317598651776  1.0000
  O   O1        1.0  0.441192693195391  0.34243273652771933  0.6543795808530901  1.0000
  C   C13       1.0  0.5089249849418351  0.39983208458171277  0.6057470482856357  1.0000
  H   H1        1.0  0.6095674063972275  0.10596018049861299  0.6212460476063233  1.0000
  H   H2        1.0  0.4782606425631555  0.022309399560181995  0.6363484414400256  1.0000
  H   H3        1.0  0.2983324897916467  0.3459106384713819  0.5975191524074126  1.0000
  H   H4        1.0  0.14333665035347204  0.053539640262815866  0.7350141616057118  1.0000
  H   H5        1.0  0.25033979049341515  0.9034792513571326  0.80069167044168  1.0000
  H   H6        1.0  0.38068137508532673  0.9712432004596133  0.7681786776115147  1.0000
  H   H7        1.0  0.49945337136983026  0.4357956324420058  0.5022057800510673  1.0000
  H   H8        1.0  0.5218308096896094  0.4842072355255265  0.6622966748388497  1.0000
  C   C14       1.0  0.9061609428364868  0.9965936970697733  0.5896630030043462  1.0000
  C   C15       1.0  0.8889178016341848  0.007064569982608181  0.4557593021441986  1.0000
  C   C16       1.0  0.8802306032154784  0.8952411312303277  0.3877040617548959  1.0000
  C   C17       1.0  0.8890185014676563  0.7718080026840934  0.4553572224000517  1.0000
  C   C18       1.0  0.906268377313723  0.7593813376352893  0.5893458439631962  1.0000
  C   C19       1.0  0.9147347359645024  0.8722956694506955  0.6556737549979641  1.0000
  C   C20       1.0  0.8619896256266821  0.9073636486333684  0.24605009971592584  1.0000
  C   C21       1.0  0.8976855161451083  0.8246772538336209  0.16172229756153178  1.0000
  C   C22       1.0  0.8804913727041186  0.8362130004951672  0.028402389802036906  1.0000
  C   C23       1.0  0.8274247451421485  0.9303445080467938  0.9776016283838308  1.0000
  C   C24       1.0  0.7915911306517824  0.013018246288258203  0.06064205758275687  1.0000
  C   C25       1.0  0.8087314709408454  0.0017263605592043826  0.1939815707112471  1.0000
  C   C26       1.0  0.8097512061192421  0.9420955228457166  0.8403370282470433  1.0000
  C   C27       1.0  0.794949807759637  0.9519368840998812  0.7253799097684235  1.0000
  C   C28       1.0  0.777617545054606  0.9634609867026659  0.5907662968623018  1.0000
  C   C29       1.0  0.7628186307327459  0.9733008453568234  0.4758277480531752  1.0000
  H   H9        1.0  0.9127545849709324  0.32004262288497154  0.6411812287555738  1.0000
  H   H10       1.0  0.8832199874200943  0.10241030260860963  0.40370723068744  1.0000
  H   H11       1.0  0.8813728862061527  0.6852991813349233  0.40375117777017194  1.0000
  H   H12       1.0  0.9280326061998897  0.8635034321474788  0.7589579172199894  1.0000
  H   H13       1.0  0.9383592975999255  0.5286426376888611  0.8424089316155822  1.0000
  H   H14       1.0  0.9396099899737832  0.7522353166824496  0.19861704409097514  1.0000
  H   H15       1.0  0.9087187475125564  0.771943812651945  0.9649312353285859  1.0000
  H   H16       1.0  0.7502667629590173  0.08599591563316511  0.02239237883308043  1.0000
  H   H17       1.0  0.7796243070701077  0.06564850784962273  0.2566280073538789  1.0000
  H   H18       1.0  0.7498239924892838  0.9819410696133434  0.3749020119429298  1.0000
  C   C30       1.0  0.9061787013809032  0.37809534891306007  0.20813427322138134  1.0000
  C   C31       1.0  0.9745964229502254  0.44379691480740624  0.2034736207835801  1.0000
  C   C32       1.0  0.009300488716546654  0.476978822203376  0.08398294491307934  1.0000
  C   C33       1.0  0.9746689831452452  0.4435792318889156  0.968205905988301  1.0000
  C   C34       1.0  0.906250629856174  0.37787970165420864  0.9708745836361019  1.0000
  C   C35       1.0  0.8723888956493238  0.34550457923634803  0.0913163403939039  1.0000
  C   C36       1.0  0.08168043375086009  0.5464832909902331  0.08010637485321803  1.0000
  C   C37       1.0  0.09356604405726232  0.6489365537133798  0.16017007501059788  1.0000
  C   C38       1.0  0.16172952713551547  0.7142391067153329  0.15632064505123844  1.0000
  C   C39       1.0  0.21876507465254225  0.6781191128166149  0.0727670544558141  1.0000
  C   C40       1.0  0.2076075307258598  0.5765169229622753  0.9928638723052684  1.0000
  C   C41       1.0  0.13952057162219766  0.5109846789818606  0.9963093629555053  1.0000
  I   I1        1.0  0.32153101769613424  0.7767982810265428  0.06726707286801115  1.0000
  H   H19       1.0  0.8800865178846549  0.3531261394199316  0.5373581086600694  1.0000
  H   H20       1.0  0.00158533337812727  0.46774120720814416  0.29311267245081685  1.0000
  H   H21       1.0  0.0006622451394107138  0.47051263784818964  0.875729237375019  1.0000
  H   H22       1.0  0.8196073147947245  0.29481996885195483  0.09414345108523903  1.0000
  H   H23       1.0  0.8801918535047177  0.35280887848709264  0.644441025689106  1.0000
  H   H24       1.0  0.04981131859544053  0.6796323465342045  0.22445808386196275  1.0000
  H   H25       1.0  0.17009250935510556  0.7931184967615234  0.21808173404852638  1.0000
  H   H26       1.0  0.2517332002499717  0.5480396153601761  0.9282930317509961  1.0000
  H   H27       1.0  0.13246892714253744  0.43150095596091376  0.9347420994579538  1.0000
  Zn  Zn1       1.0  0.823524811162438  0.3819869057853546  0.5874450202230208  1.0000
  Zn  Zn2       1.0  0.9888972910015945  0.37398786678012735  0.5915630227402902  1.0000
  C   C42       1.0  0.9062346177021886  0.37274645840236004  0.8267024120007099  1.0000
  C   C43       1.0  0.9061892905670266  0.3832298655258959  0.3523058027164869  1.0000
  C   C44       1.0  0.9062437038474525  0.615199898050618  0.5842304867116235  1.0000
  C   C45       1.0  0.9061801477784298  0.14077486816264972  0.5947777964881023  1.0000
  O   O2        1.0  0.9689508378495519  0.3819117964047332  0.4022538478885254  1.0000
  O   O3        1.0  0.968986955985608  0.36799246231009297  0.7798794620153797  1.0000
  O   O4        1.0  0.9689934472823768  0.5637767216077592  0.5840816451867235  1.0000
  O   O5        1.0  0.9689442901144844  0.18612754915507823  0.5980515659331429  1.0000
  O   O6        1.0  0.8434777556160362  0.5698472261414986  0.5809564756180639  1.0000
  O   O7        1.0  0.8434712645290887  0.37406452728991596  0.7767542225520871  1.0000
  O   O8        1.0  0.84343514628961  0.38798381656407216  0.3991270470396133  1.0000
  O   O9        1.0  0.8434285985593298  0.19219955999750044  0.5949248624561667  1.0000
