data_image0
_chemical_formula_structural       NC9NC3OH6C8H10C6NCH7Zn2C4O8
_chemical_formula_sum              "N3 C31 O9 H23 Zn2"
_cell_length_a       15.78231758774541
_cell_length_b       9.275653711864159
_cell_length_c       9.273390368590327
_cell_angle_alpha    86.35028473640597
_cell_angle_beta     90.0787864382203
_cell_angle_gamma    89.08352321082864

_space_group_name_H-M_alt    "P 1"
_space_group_IT_number       1

loop_
  _space_group_symop_operation_xyz
  'x, y, z'

loop_
  _atom_site_type_symbol
  _atom_site_label
  _atom_site_symmetry_multiplicity
  _atom_site_fract_x
  _atom_site_fract_y
  _atom_site_fract_z
  _atom_site_occupancy
  N   N1        1.0  0.7892862095144662  0.5522777564189478  0.41781125332253977  1.0000
  C   C1        1.0  0.7412628642674405  0.46144742428132624  0.4442467676177374  1.0000
  C   C2        1.0  0.6816399474658581  0.3487049079220428  0.47706005543952945  1.0000
  C   C3        1.0  0.7020957029125422  0.20708120285353826  0.5181907005077999  1.0000
  C   C4        1.0  0.6257495108213672  0.13844569045494448  0.5382069611788949  1.0000
  C   C5        1.0  0.5633818160054572  0.24326392764964397  0.5078113910230122  1.0000
  C   C6        1.0  0.47039935443772046  0.2238857196533677  0.5135329133982733  1.0000
  C   C7        1.0  0.4159887944813264  0.3427083836245477  0.4788925655384976  1.0000
  C   C8        1.0  0.327871291215763  0.3268188020841938  0.4835920239597029  1.0000
  C   C9        1.0  0.2727448733962644  0.4490985758649839  0.44793464497633284  1.0000
  N   N2        1.0  0.2284362168032392  0.547395722566463  0.41926928373386274  1.0000
  C   C10       1.0  0.29348405078441775  0.19192972966565525  0.5229856426167134  1.0000
  C   C11       1.0  0.34696230172192855  0.07335277958891862  0.5575592082185901  1.0000
  C   C12       1.0  0.43489658744225035  0.0888058338390798  0.552987439856133  1.0000
  O   O1        1.0  0.5991445336851883  0.36748601453624175  0.4716805252206391  1.0000
  H   H1        1.0  0.7648236028509404  0.15932000923128253  0.5320049944545266  1.0000
  H   H2        1.0  0.6176494175337012  0.025589638161542135  0.5709997900373394  1.0000
  H   H3        1.0  0.44200640334493485  0.44767594408782574  0.44823210493812393  1.0000
  H   H4        1.0  0.22544312383059262  0.17847205479785486  0.5269634839564025  1.0000
  H   H5        1.0  0.3202103581736569  0.9691028368394713  0.5880105281222692  1.0000
  H   H6        1.0  0.4745090186264101  0.9948846360706066  0.5803812946848117  1.0000
  C   C13       1.0  0.011243714138635678  0.1264068388783053  0.41720313502635553  1.0000
  C   C14       1.0  0.9913764348464069  0.20866814339066367  0.2885904587556255  1.0000
  C   C15       1.0  0.9638680332884487  0.1424406889029206  0.16553058394165743  1.0000
  C   C16       1.0  0.9574875272333787  0.9919668241764373  0.1701148312294982  1.0000
  C   C17       1.0  0.9782696694527647  0.9084783770418275  0.2959528423783764  1.0000
  C   C18       1.0  0.00648684908111518  0.9732555719568495  0.4198898103688336  1.0000
  C   C19       1.0  0.9440418684956781  0.23199038889977916  0.028132343519942093  1.0000
  C   C20       1.0  0.02332144979130412  0.25196270507164886  0.9356431129238199  1.0000
  H   H7        1.0  0.08813335319598974  0.39221811373799964  0.6172350756703828  1.0000
  H   H8        1.0  0.9954343201450238  0.3254004691656345  0.2847208001900109  1.0000
  H   H9        1.0  0.9372107537615213  0.9389471112760679  0.07550561952608323  1.0000
  H   H10       1.0  0.9743512600765429  0.7920414737821414  0.29506002292978484  1.0000
  H   H11       1.0  0.01442429132550704  0.6765849544347348  0.6575988197757172  1.0000
  H   H12       1.0  0.8946518050176233  0.17899328422789249  0.9652929818822703  1.0000
  H   H13       1.0  0.9183216009107542  0.3397110954089575  0.0535940422204355  1.0000
  H   H14       1.0  0.07269352377687904  0.30824241359367455  0.9953131812154443  1.0000
  H   H15       1.0  0.048760524905647716  0.14545834818474535  0.9060691736564048  1.0000
  H   H16       1.0  0.007355540581365225  0.3181306154604846  0.8349920548474914  1.0000
  C   C21       1.0  0.00892981833853977  0.5453343146138442  0.9952865799992846  1.0000
  C   C22       1.0  0.08677319341594722  0.5416041142704382  0.06913837137731658  1.0000
  C   C23       1.0  0.1631837929791805  0.5512930814932573  0.9940109071899728  1.0000
  C   C24       1.0  0.16369174026550526  0.5650812799437404  0.8424286270960284  1.0000
  C   C25       1.0  0.08637851579239242  0.5663740278703978  0.7677612337375554  1.0000
  C   C26       1.0  0.008800773281177217  0.5543281582228763  0.8418063847126274  1.0000
  N   N3        1.0  0.24152521405628613  0.5764145528199829  0.7619377020748646  1.0000
  C   C27       1.0  0.3251891314324715  0.5756543985793734  0.8292042154420476  1.0000
  H   H17       1.0  0.8755708064074627  0.477558150465212  0.28046277474351217  1.0000
  H   H18       1.0  0.22157503100170783  0.5493172191647624  0.05532154266400835  1.0000
  H   H19       1.0  0.8119514091822762  0.44450184740916865  0.745304252281354  1.0000
  H   H20       1.0  0.23872211305849123  0.5860013152297547  0.6490830580974497  1.0000
  H   H21       1.0  0.33016899474543915  0.6680904160362958  0.8989844634285196  1.0000
  H   H22       1.0  0.33610429843517764  0.4724690091849881  0.8944654722251011  1.0000
  H   H23       1.0  0.37478686143529294  0.5860030164082429  0.7445131050442617  1.0000
  Zn  Zn1       1.0  0.9160154321773878  0.5508651436972698  0.4182403137615994  1.0000
  Zn  Zn2       1.0  0.10170702995631387  0.548796691988986  0.4188519684136742  1.0000
  C   C28       1.0  0.008855524002013832  0.5468838470623048  0.6817777921236301  1.0000
  C   C29       1.0  0.008868955637116862  0.5527797868817643  0.15531464397076422  1.0000
  C   C30       1.0  0.007382518677954582  0.8131221890239233  0.4136383482619254  1.0000
  C   C31       1.0  0.010341907316937512  0.2865397140547201  0.4234541589716594  1.0000
  O   O2        1.0  0.07931755851091093  0.5544872981330746  0.20925362390927035  1.0000
  O   O3        1.0  0.07934255340475958  0.5436053366412497  0.6283026255515722  1.0000
  O   O4        1.0  0.07815213279264421  0.7585961913233701  0.41177812912968237  1.0000
  O   O5        1.0  0.08050791571760008  0.3394964533234208  0.4257780120845018  1.0000
  O   O6        1.0  0.937214483048665  0.7601653830701849  0.41131426987446745  1.0000
  O   O7        1.0  0.9384048939375823  0.5451762599608403  0.627838694940863  1.0000
  O   O8        1.0  0.9383798996465459  0.5560581527935682  0.20878796022853846  1.0000
  O   O9        1.0  0.9395702568912243  0.34106729881879816  0.42531245643412474  1.0000
