data_image0
_chemical_formula_structural       NC5NC3BrH3C9H8C7NH4Zn2C4O8
_chemical_formula_sum              "N3 C28 Br1 H15 Zn2 O8"
_cell_length_a       13.839083392302014
_cell_length_b       9.275152443626249
_cell_length_c       9.275157849593905
_cell_angle_alpha    85.91609934181939
_cell_angle_beta     89.74163777479679
_cell_angle_gamma    90.59950914120974

_space_group_name_H-M_alt    "P 1"
_space_group_IT_number       1

loop_
  _space_group_symop_operation_xyz
  'x, y, z'

loop_
  _atom_site_type_symbol
  _atom_site_label
  _atom_site_symmetry_multiplicity
  _atom_site_fract_x
  _atom_site_fract_y
  _atom_site_fract_z
  _atom_site_occupancy
  N   N1        1.0  0.9252266550896938  0.564052120309094  0.4049556588538892  1.0000
  C   C1        1.0  0.8527888648428228  0.5004079798253926  0.40763891001710695  1.0000
  C   C2        1.0  0.7625379717307068  0.42121266263394963  0.4109776445287047  1.0000
  C   C3        1.0  0.6755025537593781  0.4974157547486491  0.40776525116644724  1.0000
  C   C4        1.0  0.5869448732152657  0.4226854446315625  0.41091549840360153  1.0000
  C   C5        1.0  0.49772311376410505  0.501240026656754  0.4076038155045272  1.0000
  N   N2        1.0  0.4260004251426586  0.5643917503124538  0.40494128507586025  1.0000
  C   C6        1.0  0.5853546474217558  0.271440527350888  0.41729131913441586  1.0000
  C   C7        1.0  0.6719441905427728  0.1951161617503312  0.42050873351900886  1.0000
  C   C8        1.0  0.7606930154979143  0.2691323186398986  0.41738861201923005  1.0000
  Br  Br1       1.0  0.8773430734661563  0.1590374741293319  0.4220298153875388  1.0000
  H   H1        1.0  0.6766797542912629  0.6146177633143144  0.4028243303415575  1.0000
  H   H2        1.0  0.5172576987964103  0.2125855248200783  0.41977211954701077  1.0000
  H   H3        1.0  0.6700054982749019  0.07816336611499342  0.42543877120523826  1.0000
  C   C9        1.0  0.17276330813791008  0.14060187169185534  0.40641982603583093  1.0000
  C   C10       1.0  0.1382683509318192  0.222138210672693  0.28399172107078474  1.0000
  C   C11       1.0  0.11276223197905533  0.15547781336092426  0.15927118053071077  1.0000
  C   C12       1.0  0.12135209163913374  0.0060958187514046315  0.1545093120244856  1.0000
  C   C13       1.0  0.15396056283831894  0.9228600838861809  0.27590278658634815  1.0000
  C   C14       1.0  0.1784729120001265  0.9878310297719318  0.403489608960957  1.0000
  C   C15       1.0  0.09555558365225035  0.9376843235337274  0.025353330756449514  1.0000
  C   C16       1.0  0.07395706569785743  0.8803722549834921  0.9172054466087157  1.0000
  C   C17       1.0  0.0477515405721729  0.8108221960750679  0.7859869561819592  1.0000
  H   H4        1.0  0.31075671045105824  0.2251200594298983  0.6942217013292207  1.0000
  H   H5        1.0  0.13317960941241402  0.3386478778688873  0.2835385630947953  1.0000
  H   H6        1.0  0.08720395287549221  0.22080092969940113  0.06593853278093542  1.0000
  H   H7        1.0  0.1580408617873088  0.8065140847548842  0.2718825150314055  1.0000
  H   H8        1.0  0.2682730066729486  0.6944892762470556  0.6003365602511945  1.0000
  H   H9        1.0  0.06537632524261139  0.6942420426949556  0.7994494896946982  1.0000
  H   H10       1.0  0.9691630513932273  0.8231613702655358  0.766260564562846  1.0000
  H   H11       1.0  0.08883499331491553  0.8622997819478714  0.6927050210994667  1.0000
  C   C18       1.0  0.1768727971067023  0.5601396998485162  0.9817710313197696  1.0000
  C   C19       1.0  0.26047550373493245  0.6072236183033828  0.051302031033239034  1.0000
  C   C20       1.0  0.3391978859522955  0.6656475664925594  0.9712197437517863  1.0000
  C   C21       1.0  0.33523695686918575  0.677916191010375  0.8205184713964688  1.0000
  C   C22       1.0  0.25361300751713434  0.629665475585383  0.7496499129949792  1.0000
  C   C23       1.0  0.17436344167077777  0.5682931301091569  0.8281384703141383  1.0000
  C   C24       1.0  0.42376120074074985  0.7147410887245209  0.044051360388237974  1.0000
  N   N3        1.0  0.4917284486778737  0.7541990437081005  0.10259571104128781  1.0000
  H   H12       1.0  0.941437449305572  0.511341348779911  0.08978359530458446  1.0000
  H   H13       1.0  0.39571496013262286  0.7235874960518527  0.7575361360194939  1.0000
  H   H14       1.0  0.25345035390400694  0.6372495428964566  0.6325592490147169  1.0000
  H   H15       1.0  0.016817951731315398  0.5293817183364333  0.5508706820162468  1.0000
  Zn  Zn1       1.0  0.06973910001242722  0.5641463427226974  0.4049598526492235  1.0000
  Zn  Zn2       1.0  0.2814878576141271  0.5642858179671979  0.4049489586527488  1.0000
  C   C25       1.0  0.17479685609282014  0.5610051244843286  0.6681767522757815  1.0000
  C   C26       1.0  0.17643242567053255  0.5674288592505807  0.1417321940544984  1.0000
  C   C27       1.0  0.17740572142873723  0.8276313319567978  0.3983009139446354  1.0000
  C   C28       1.0  0.1738234761717241  0.3008009193049024  0.41160811521382135  1.0000
  O   O1        1.0  0.2566421405532626  0.5699218044226675  0.19541250908280094  1.0000
  O   O2        1.0  0.25529954259302134  0.5586169455350285  0.6144877578840504  1.0000
  O   O3        1.0  0.2574051466444618  0.7739209937393532  0.3965611038833734  1.0000
  O   O4        1.0  0.25453646463621804  0.3546177654493099  0.4133390550002951  1.0000
  O   O5        1.0  0.09669042073091026  0.7738143951944871  0.39656975629780944  1.0000
  O   O6        1.0  0.09458482858293538  0.5585120794172731  0.6144963274664412  1.0000
  O   O7        1.0  0.09592743140562332  0.5698168713441962  0.19541934624024382  1.0000
  O   O8        1.0  0.09382175509475688  0.3545128230937733  0.41334600023705304  1.0000
