data_image0
_chemical_formula_structural       NC8Cl2C7NH8C6H6C12H10Zn2C4O8
_chemical_formula_sum              "N2 C37 Cl2 H24 Zn2 O8"
_cell_length_a       18.42689100911083
_cell_length_b       10.681118228259551
_cell_length_c       13.024585202197207
_cell_angle_alpha    85.80459198147678
_cell_angle_beta     93.92807891465861
_cell_angle_gamma    90.00480582601958

_space_group_name_H-M_alt    "P 1"
_space_group_IT_number       1

loop_
  _space_group_symop_operation_xyz
  'x, y, z'

loop_
  _atom_site_type_symbol
  _atom_site_label
  _atom_site_symmetry_multiplicity
  _atom_site_fract_x
  _atom_site_fract_y
  _atom_site_fract_z
  _atom_site_occupancy
  N   N1        1.0  0.6274144839768736  0.36509923763786967  0.8637908312775688  1.0000
  C   C1        1.0  0.575294191308693  0.30473001992620724  0.8593764391166763  1.0000
  C   C2        1.0  0.5104613210904962  0.22963806112824936  0.8538860121056244  1.0000
  C   C3        1.0  0.45068978789722747  0.2693720494571943  0.7876639296992576  1.0000
  C   C4        1.0  0.3877952072130139  0.19641276451151968  0.7821953207421688  1.0000
  C   C5        1.0  0.3829467706997286  0.08314509542343362  0.8442204683974197  1.0000
  C   C6        1.0  0.4444676007811532  0.04282141022035568  0.9087476591466908  1.0000
  C   C7        1.0  0.5073232999001789  0.1160804340834136  0.9139928738373181  1.0000
  C   C8        1.0  0.3139867348378555  0.004062182270898176  0.8337135750531816  1.0000
  Cl  Cl1       1.0  0.3182593884957125  0.9278636098248422  0.7160647877818984  1.0000
  Cl  Cl2       1.0  0.30891264650037853  0.8819551006846408  0.9350129531540694  1.0000
  C   C9        1.0  0.2456724694915523  0.08478872425292258  0.8363825001514373  1.0000
  C   C10       1.0  0.18393888864109398  0.07243595624567221  0.7675121644765701  1.0000
  C   C11       1.0  0.12167390034034749  0.1453675424817995  0.7743199874527125  1.0000
  C   C12       1.0  0.11933792352067851  0.23028745743146445  0.8507908752913032  1.0000
  C   C13       1.0  0.17931483961743844  0.24137193500454227  0.9212028389075124  1.0000
  C   C14       1.0  0.2416205664336576  0.16863803832537805  0.9146595160691162  1.0000
  C   C15       1.0  0.055110677898567405  0.3050902795636743  0.8576592189328789  1.0000
  N   N2        1.0  0.0034772855609729804  0.3652272233248956  0.863180701092566  1.0000
  H   H1        1.0  0.4527727175186025  0.35650720472205505  0.739852205042739  1.0000
  H   H2        1.0  0.34259866283169493  0.2284610574665935  0.7292646779952008  1.0000
  H   H3        1.0  0.44494287980690955  0.9547006296159607  0.9551378160570287  1.0000
  H   H4        1.0  0.553689605967566  0.08368377339882671  0.9646294265268964  1.0000
  H   H5        1.0  0.182840866628714  0.006433842270589409  0.7084148442329117  1.0000
  H   H6        1.0  0.07513452847651346  0.13494563987034058  0.7201534780742446  1.0000
  H   H7        1.0  0.17784452610714113  0.30583622821629414  0.9815134166026593  1.0000
  H   H8        1.0  0.2869835790632809  0.17777715732061153  0.9709858423957307  1.0000
  C   C16       1.0  0.8154495853656644  0.9974132472954537  0.8634901918285895  1.0000
  C   C17       1.0  0.8513271702319  0.923318660595341  0.9451640088177025  1.0000
  C   C18       1.0  0.8513271568220696  0.7924364221809804  0.9451639617869247  1.0000
  C   C19       1.0  0.8154495753719553  0.7329036514701283  0.863490236333851  1.0000
  C   C20       1.0  0.7796016843405066  0.8069871843893005  0.7818839123965655  1.0000
  C   C21       1.0  0.7796016974540058  0.9378794427003369  0.7818839541448788  1.0000
  H   H9        1.0  0.7791674606073946  0.3034859666244276  0.7808962751011262  1.0000
  H   H10       1.0  0.8794497554105799  0.9664224613756324  0.009183769223148229  1.0000
  H   H11       1.0  0.8794496652995614  0.7379184326588122  0.009183751190066317  1.0000
  H   H12       1.0  0.7514754317903574  0.7639288838128926  0.717855792980588  1.0000
  H   H13       1.0  0.751475412357681  0.9923533227985559  0.7178557846437744  1.0000
  H   H14       1.0  0.7791677140698746  0.44155661443666866  0.7808959962936715  1.0000
  C   C22       1.0  0.8005760163110643  0.363650371364894  0.5612954611841574  1.0000
  C   C23       1.0  0.784534104812507  0.46371625058503924  0.486891702837843  1.0000
  C   C24       1.0  0.8093268484798539  0.46180737668053307  0.3879713799189015  1.0000
  C   C25       1.0  0.8501021032688316  0.35949696125668296  0.3614579787319249  1.0000
  C   C26       1.0  0.8668333129876638  0.2601438636264666  0.435787432842922  1.0000
  C   C27       1.0  0.8420771007375412  0.2619476548104136  0.5347509601746825  1.0000
  C   C28       1.0  0.877391155540244  0.3583504575356584  0.2572136339313096  1.0000
  C   C29       1.0  0.9530712584483106  0.3542933547493527  0.24940863906371913  1.0000
  C   C30       1.0  0.9822414506396115  0.360944045065123  0.15313698540370457  1.0000
  C   C31       1.0  0.9363445638283335  0.37199607282585734  0.06336286216092724  1.0000
  C   C32       1.0  0.8610373030690583  0.37488241195029537  0.06942462706869512  1.0000
  C   C33       1.0  0.83032310685548  0.3666665046642604  0.16568493463842127  1.0000
  H   H15       1.0  0.7730485932058209  0.2658571115683632  0.8112825380228708  1.0000
  H   H16       1.0  0.7529577761935277  0.5436473796186185  0.5051257224722385  1.0000
  H   H17       1.0  0.7968346505928467  0.540201479436659  0.3319942415463073  1.0000
  H   H18       1.0  0.8987138733347735  0.18085991392871326  0.41687155832135436  1.0000
  H   H19       1.0  0.8555072924233053  0.1836868493607544  0.5904084303174972  1.0000
  H   H20       1.0  0.9897306369200948  0.34819506611838325  0.31829601246868156  1.0000
  H   H21       1.0  0.04061187863141158  0.3584796882212742  0.1481610884046114  1.0000
  H   H22       1.0  0.9591419972205387  0.37752620759075545  0.9887589300341739  1.0000
  H   H23       1.0  0.8266766105411459  0.3812505907607324  0.9983475452986164  1.0000
  H   H24       1.0  0.6516796420597353  0.4102510715117649  0.08144023985347815  1.0000
  Zn  Zn1       1.0  0.7359383804398898  0.36513284989815104  0.8636207047244637  1.0000
  Zn  Zn2       1.0  0.8949538002335095  0.36518341051992076  0.8633592610031839  1.0000
  C   C34       1.0  0.8246986732454057  0.36110745991904336  0.051442410480127654  1.0000
  C   C35       1.0  0.8061952488426418  0.36921038165867803  0.6755376533964124  1.0000
  C   C36       1.0  0.8152440009610077  0.5938598180335044  0.8593894542569708  1.0000
  C   C37       1.0  0.8156498695665673  0.13645651921752935  0.867590664573024  1.0000
  O   O1        1.0  0.8684266377085558  0.3710900959827009  0.7137791601881325  1.0000
  O   O2        1.0  0.8831562940563531  0.3592651737227186  0.013002177719634413  1.0000
  O   O3        1.0  0.8755207657949929  0.5472156515366724  0.8579180581004902  1.0000
  O   O4        1.0  0.8760621079110688  0.18313962672490455  0.868863202737308  1.0000
  O   O5        1.0  0.7548300184979054  0.5471766336772494  0.8581167630741449  1.0000
  O   O6        1.0  0.7624655440553124  0.3592276601740658  0.013200827823639521  1.0000
  O   O7        1.0  0.7477358268604475  0.37105253261990656  0.7139765730462398  1.0000
  O   O8        1.0  0.7553713008573828  0.18310205479003522  0.8690606927491897  1.0000
