data_image0
_chemical_formula_structural       NC9NC3SH6C8H5C8NH7Zn2C4O8
_chemical_formula_sum              "N3 C32 S1 H18 Zn2 O8"
_cell_length_a       16.77567553997237
_cell_length_b       9.27514070457351
_cell_length_c       9.274266800404106
_cell_angle_alpha    86.12813201358244
_cell_angle_beta     89.94189520236782
_cell_angle_gamma    91.48491386358626

_space_group_name_H-M_alt    "P 1"
_space_group_IT_number       1

loop_
  _space_group_symop_operation_xyz
  'x, y, z'

loop_
  _atom_site_type_symbol
  _atom_site_label
  _atom_site_symmetry_multiplicity
  _atom_site_fract_x
  _atom_site_fract_y
  _atom_site_fract_z
  _atom_site_occupancy
  N   N1        1.0  0.7666153794547736  0.587357061465172  0.4217495671013341  1.0000
  C   C1        1.0  0.7119827782893938  0.6424786084210719  0.4680659311087472  1.0000
  C   C2        1.0  0.6441829152412671  0.7108808002311549  0.5255409966358215  1.0000
  C   C3        1.0  0.646427062913197  0.809487519880548  0.6313017964187313  1.0000
  C   C4        1.0  0.570916836297217  0.8580245567678694  0.6664041106935796  1.0000
  C   C5        1.0  0.5089044397895133  0.7974250880817411  0.5878687571882728  1.0000
  C   C6        1.0  0.4225280366334974  0.8264598564597122  0.5999882142122142  1.0000
  C   C7        1.0  0.3654816330360431  0.7375961482224518  0.5350625056856488  1.0000
  C   C8        1.0  0.2839471560260119  0.7643895650895087  0.5460033637110835  1.0000
  C   C9        1.0  0.22622293023454249  0.6725508485321103  0.4795211932168961  1.0000
  N   N2        1.0  0.1798297092388526  0.5987256833853598  0.42607934983627677  1.0000
  C   C10       1.0  0.2586320134219188  0.8803935611054272  0.6216919952670925  1.0000
  C   C11       1.0  0.3145899644209171  0.9694298331408858  0.6861057985266639  1.0000
  C   C12       1.0  0.39596769919831626  0.9430422361128492  0.6754929788783155  1.0000
  S   S1        1.0  0.5493195337608872  0.6832230524805256  0.47534550676008647  1.0000
  H   H1        1.0  0.7008155715935555  0.8452463076568663  0.6821952875264068  1.0000
  H   H2        1.0  0.5627350725837839  0.9340340453892738  0.7481644193752321  1.0000
  H   H3        1.0  0.3840106173390814  0.6468810882940155  0.47661185722802  1.0000
  H   H4        1.0  0.19573322055338865  0.9020697119048735  0.630725521341349  1.0000
  H   H5        1.0  0.2948779460248068  0.05946316164317354  0.7442022944737086  1.0000
  H   H6        1.0  0.43760684628840535  0.01519551018892029  0.7253603823302819  1.0000
  C   C13       1.0  0.9708085997241351  0.16952667635344554  0.42288106924961033  1.0000
  C   C14       1.0  0.9827580916319993  0.25231209817946043  0.2915111083649322  1.0000
  C   C15       1.0  0.001638722184381216  0.18657043994061495  0.1653803064399837  1.0000
  C   C16       1.0  0.00901897218676617  0.03686410713797872  0.16819805875554472  1.0000
  C   C17       1.0  0.9960584543100346  0.9524523292496752  0.29719491061597636  1.0000
  C   C18       1.0  0.9756439816139122  0.016545299747841035  0.42496043702971775  1.0000
  C   C19       1.0  0.029004695563133558  0.9693717674336323  0.03804955089201024  1.0000
  C   C20       1.0  0.045738388899038585  0.9128485619337141  0.9290873528161665  1.0000
  H   H7        1.0  0.982330294215534  0.24900280349280446  0.777201187717482  1.0000
  H   H8        1.0  0.011261522076203125  0.2528294644752711  0.06582729247851993  1.0000
  H   H9        1.0  7.855392861011504e-05  0.8359543673297554  0.297058961875567  1.0000
  H   H10       1.0  0.9803405233157845  0.719936291737483  0.6636548695813871  1.0000
  H   H11       1.0  0.060426982338644075  0.8632313611685632  0.8334414244962041  1.0000
  C   C21       1.0  0.9750421197897585  0.589933142313326  0.0006214836921003504  1.0000
  C   C22       1.0  0.9281188214142106  0.4854158608410944  0.0810320125373869  1.0000
  C   C23       1.0  0.8764347921352701  0.3919822121700185  0.012373017113958657  1.0000
  C   C24       1.0  0.8699607678499103  0.40160498060379934  0.8616307945866528  1.0000
  C   C25       1.0  0.9179589654572768  0.5027044335433621  0.7799170197595093  1.0000
  C   C26       1.0  0.9714104581932573  0.5961388289366869  0.8472199493297339  1.0000
  C   C27       1.0  0.8150782414685784  0.2993802673616377  0.7877326598692163  1.0000
  C   C28       1.0  0.8575017223778382  0.16871796155040242  0.7566463118110223  1.0000
  N   N3        1.0  0.8909894960620428  0.06559539927502334  0.7321092553587842  1.0000
  H   H12       1.0  0.06468671062760278  0.9097601440139406  0.08175631575259468  1.0000
  H   H13       1.0  0.9301118337619814  0.47800260579327003  0.19804902977999217  1.0000
  H   H14       1.0  0.8408018106716666  0.3128286305732051  0.07705635641523512  1.0000
  H   H15       1.0  0.914872678609043  0.5059096697142966  0.6630015659405886  1.0000
  H   H16       1.0  0.034646339329191145  0.8087467656577281  0.552047695139172  1.0000
  H   H17       1.0  0.7926371860629211  0.3515622506651772  0.684854954754448  1.0000
  H   H18       1.0  0.7626157430424156  0.2683090886013004  0.8572735328765142  1.0000
  Zn  Zn1       1.0  0.8858600542559467  0.5906340107261361  0.4230073724267145  1.0000
  Zn  Zn2       1.0  0.060584911528466  0.5954370557391149  0.4248333533401343  1.0000
  C   C29       1.0  0.9720623597277938  0.5892203417897284  0.6871806182823683  1.0000
  C   C30       1.0  0.9743845238279382  0.5968525978688324  0.16066027337229774  1.0000
  C   C31       1.0  0.9747505441919532  0.8563985305147679  0.418823154106869  1.0000
  C   C32       1.0  0.9716962695210106  0.3296726753330408  0.42901780952225926  1.0000
  O   O1        1.0  0.04047096544598672  0.600991269039127  0.21506368795601527  1.0000
  O   O2        1.0  0.038588037490526965  0.5887259796139024  0.6341626633414628  1.0000
  O   O3        1.0  0.040757880160069426  0.8044757323542566  0.4174621066860389  1.0000
  O   O4        1.0  0.03830106367721431  0.3852415241844771  0.43176413593297003  1.0000
  O   O5        1.0  0.908143842482221  0.8008295406432449  0.4160765892031828  1.0000
  O   O6        1.0  0.9059740100304691  0.5850815200761131  0.6327770732534488  1.0000
  O   O7        1.0  0.9078569451863807  0.5973467465418218  0.21367636467330153  1.0000
  O   O8        1.0  0.9056870428918606  0.38159699216393833  0.43037692069802946  1.0000
