data_image0
_chemical_formula_structural       NC5NC3OH4C7NH5C7ONH5Zn2C4O8
_chemical_formula_sum              "N4 C26 O10 H14 Zn2"
_cell_length_a       13.84702359539666
_cell_length_b       9.275154477615127
_cell_length_c       9.273042158839658
_cell_angle_alpha    86.38948304707893
_cell_angle_beta     90.0789287002439
_cell_angle_gamma    89.43463511314383

_space_group_name_H-M_alt    "P 1"
_space_group_IT_number       1

loop_
  _space_group_symop_operation_xyz
  'x, y, z'

loop_
  _atom_site_type_symbol
  _atom_site_label
  _atom_site_symmetry_multiplicity
  _atom_site_fract_x
  _atom_site_fract_y
  _atom_site_fract_z
  _atom_site_occupancy
  N   N1        1.0  0.8973150707582218  0.5612584089906496  0.4159728708551206  1.0000
  C   C1        1.0  0.8252925811401352  0.5532545019032604  0.4789962206742113  1.0000
  C   C2        1.0  0.7355975615681122  0.5432879467274798  0.5574735703955557  1.0000
  C   C3        1.0  0.6478671414467129  0.5529162643453636  0.48165881687259304  1.0000
  C   C4        1.0  0.5601503166071102  0.5433998118674077  0.5565923102786097  1.0000
  C   C5        1.0  0.47014866716707887  0.5533129210087695  0.47853591259009587  1.0000
  N   N2        1.0  0.39779898223522614  0.5612823020979599  0.41578479185128914  1.0000
  C   C6        1.0  0.5601589949561095  0.5242263131442442  0.7075658017276774  1.0000
  C   C7        1.0  0.6475093200870913  0.5145889922269085  0.7834485453349962  1.0000
  C   C8        1.0  0.7355425073539352  0.5240441310024517  0.70899945254251  1.0000
  O   O1        1.0  0.8226134525720414  0.5143903765787027  0.785013523954182  1.0000
  H   H1        1.0  0.6478649976605031  0.5677703593419083  0.3646975469545699  1.0000
  H   H2        1.0  0.4927180620001728  0.5167363548452231  0.7665419090848762  1.0000
  H   H3        1.0  0.6467326632099919  0.4997643673412626  0.9001785402189257  1.0000
  H   H4        1.0  0.824356318323495  0.5005158978169337  0.8942610990129323  1.0000
  C   C9        1.0  0.15035451124421395  0.13786363018655612  0.4142097860242595  1.0000
  C   C10       1.0  0.1237167699743611  0.21970351564945068  0.2871310143429575  1.0000
  C   C11       1.0  0.0892307908062453  0.15239638882996043  0.16678727490628703  1.0000
  C   C12       1.0  0.08081530202363751  0.0023314120326256523  0.17210505922486896  1.0000
  C   C13       1.0  0.10834514414574284  0.9192533971206344  0.2962866079746882  1.0000
  C   C14       1.0  0.1447688554525819  0.9846661320952697  0.41756029945077966  1.0000
  C   C15       1.0  0.06130667640372867  0.23780189968571366  0.038177235476290816  1.0000
  N   N3        1.0  0.03886343129813064  0.3064523715807104  0.9348077067180922  1.0000
  H   H5        1.0  0.16944098289101261  0.21826036943820837  0.7680158355220099  1.0000
  H   H6        1.0  0.1276563423479533  0.33661807959312817  0.28285269724751666  1.0000
  H   H7        1.0  0.05379608386044144  0.949229734680203  0.07961353069270971  1.0000
  H   H8        1.0  0.10327392026539206  0.8027842235728502  0.2961616623491714  1.0000
  H   H9        1.0  0.16171721960219435  0.6883923980040627  0.6546188529511967  1.0000
  C   C16       1.0  0.14712928035420034  0.556808748183502  0.9926026582519634  1.0000
  C   C17       1.0  0.058369165641042345  0.5659859697956835  0.06535313400323428  1.0000
  C   C18       1.0  0.9712609855276454  0.5891097040312332  0.9892211657650467  1.0000
  C   C19       1.0  0.973459808095537  0.6013147075694247  0.837769898625678  1.0000
  C   C20       1.0  0.06065292589248306  0.5900205001343739  0.7640022106940134  1.0000
  C   C21       1.0  0.14799411061995832  0.5657209524503866  0.8391674117213919  1.0000
  C   C22       1.0  0.8789122478913659  0.5990589210061188  0.06915525663203947  1.0000
  O   O2        1.0  0.872828539497389  0.5432624338669332  0.19630753984053806  1.0000
  N   N4        1.0  0.7962843086056695  0.6722031178514128  0.005939090282089723  1.0000
  H   H10       1.0  0.38106997587473934  0.6118938017163698  0.09269254858269882  1.0000
  H   H11       1.0  0.9076938066058652  0.6155674572402674  0.7752278559083131  1.0000
  H   H12       1.0  0.3057220074733069  0.5961336777201116  0.5563065664993072  1.0000
  H   H13       1.0  0.8005244171082796  0.7344656696191484  0.908517861607629  1.0000
  H   H14       1.0  0.7310125489673691  0.6720377151464909  0.06220544467539479  1.0000
  Zn  Zn1       1.0  0.04174394878758392  0.5612615316139419  0.41592689142880546  1.0000
  Zn  Zn2       1.0  0.25337016998185935  0.561267505667228  0.41584248821411385  1.0000
  C   C23       1.0  0.14786634763968753  0.5582924179089244  0.6791257970248299  1.0000
  C   C24       1.0  0.14725007022598158  0.5642384401696423  0.1526437303697969  1.0000
  C   C25       1.0  0.14581382058604841  0.824541944494521  0.41118301069047136  1.0000
  C   C26       1.0  0.14930253657140186  0.29798718209805397  0.42058658672708205  1.0000
  O   O3        1.0  0.2276016979460343  0.5667278895236454  0.20632292069752434  1.0000
  O   O4        1.0  0.22813413185955533  0.5558064106387066  0.6253821273737392  1.0000
  O   O5        1.0  0.22647560920572946  0.7708062862894265  0.4090164380326402  1.0000
  O   O6        1.0  0.229260148207727  0.3517280230473814  0.42268850203183383  1.0000
  O   O7        1.0  0.06585389834405464  0.7708010142332398  0.40908087763231216  1.0000
  O   O8        1.0  0.06751240948843851  0.555802870067962  0.6254464969717124  1.0000
  O   O9        1.0  0.06697997420023438  0.5667242804641723  0.2063855570939419  1.0000
  O   O10       1.0  0.06863842463639958  0.35172440481290335  0.42275124645626794  1.0000
