data_image0
_chemical_formula_structural       NC5NC3F3CH3C7NH5C7NH4Zn2C4O8
_chemical_formula_sum              "N4 C27 F3 H12 Zn2 O8"
_cell_length_a       13.85151926108384
_cell_length_b       9.275154477615127
_cell_length_c       9.275157849593905
_cell_angle_alpha    86.33461140486662
_cell_angle_beta     89.74088631582597
_cell_angle_gamma    89.43371178103573

_space_group_name_H-M_alt    "P 1"
_space_group_IT_number       1

loop_
  _space_group_symop_operation_xyz
  'x, y, z'

loop_
  _atom_site_type_symbol
  _atom_site_label
  _atom_site_symmetry_multiplicity
  _atom_site_fract_x
  _atom_site_fract_y
  _atom_site_fract_z
  _atom_site_occupancy
  N   N1        1.0  0.9035353816320478  0.562639430825947  0.41656706848440295  1.0000
  C   C1        1.0  0.8310729618464497  0.5541628505453242  0.478981019381387  1.0000
  C   C2        1.0  0.740924003309324  0.5436168257990779  0.5566329032719584  1.0000
  C   C3        1.0  0.6535702760400804  0.5521091614745196  0.4811649146725096  1.0000
  C   C4        1.0  0.5658720139545911  0.5436168124631628  0.5566328831667102  1.0000
  C   C5        1.0  0.4760537093293427  0.5541628675971495  0.4789811134877455  1.0000
  N   N2        1.0  0.40385719594396763  0.5626393939605456  0.4165671737589485  1.0000
  C   C6        1.0  0.5655242875427783  0.5256360659192122  0.7077408832811414  1.0000
  C   C7        1.0  0.6529043318772418  0.5139667628162042  0.7844579991456467  1.0000
  C   C8        1.0  0.6525037035975366  0.49996242466145424  0.9473738053143772  1.0000
  F   F1        1.0  0.733774525483506  0.4256606084219224  0.9986652734380165  1.0000
  F   F2        1.0  0.5719057107186827  0.42566057878499486  0.9986653725869534  1.0000
  F   F3        1.0  0.6514435528329715  0.6362452886999033  0.9996178554448987  1.0000
  C   C9        1.0  0.7405946149544651  0.5256359708751714  0.7077409025152054  1.0000
  H   H1        1.0  0.6538313519130381  0.5661906589489341  0.3641723766129912  1.0000
  H   H2        1.0  0.49725715406858495  0.5210142021141135  0.7653570562340344  1.0000
  H   H3        1.0  0.8085739082509176  0.5210141208374067  0.7653570148833353  1.0000
  C   C10       1.0  0.1564997282285545  0.1392340716991145  0.41489939267622633  1.0000
  C   C11       1.0  0.13039310601635568  0.2211894914377306  0.28783121527708566  1.0000
  C   C12       1.0  0.09641311051998708  0.1539922209039235  0.16749402759610452  1.0000
  C   C13       1.0  0.08797849758266228  0.003922867603523229  0.1728077859770878  1.0000
  C   C14       1.0  0.11498884151227845  0.9207318803524972  0.2969795456393993  1.0000
  C   C15       1.0  0.15090211533190234  0.98603382978187  0.4182472629884313  1.0000
  C   C16       1.0  0.06902682918047875  0.23951470460848137  0.03889434719348972  1.0000
  N   N3        1.0  0.04701586390170043  0.3082591926834164  0.9355331446617616  1.0000
  H   H4        1.0  0.1741254088119819  0.2193117944354548  0.7686552414961882  1.0000
  H   H5        1.0  0.13434898557166686  0.3381077125136893  0.28355507295612314  1.0000
  H   H6        1.0  0.06134832630452448  0.9509056462718031  0.08032109940834098  1.0000
  H   H7        1.0  0.10991978155549442  0.8042630629515801  0.2968527138910133  1.0000
  H   H8        1.0  0.1668703606643774  0.6895461469604871  0.6552737446529846  1.0000
  C   C17       1.0  0.1550088731626976  0.5585584020358316  0.9933594232767855  1.0000
  C   C18       1.0  0.2379087781738208  0.6055620042253123  0.06324129383446331  1.0000
  C   C19       1.0  0.315781442266051  0.6639032486660401  0.9835937898964207  1.0000
  C   C20       1.0  0.31166038766954485  0.6761683961215128  0.8329833326446523  1.0000
  C   C21       1.0  0.23075303711717843  0.6279972417227414  0.7617553045321666  1.0000
  C   C22       1.0  0.15239299231189163  0.5667094381643056  0.8397872187051395  1.0000
  C   C23       1.0  0.3996142888519626  0.7129147941827889  0.05679119111380415  1.0000
  N   N4        1.0  0.466994436285937  0.7523068612154187  0.11562953397202103  1.0000
  H   H9        1.0  0.9204348581363407  0.5099441450429213  0.10100480885927654  1.0000
  H   H10       1.0  0.37147509532457734  0.7217757690013992  0.7703408519327195  1.0000
  H   H11       1.0  0.23048935669469972  0.6355776101981883  0.6447208337708171  1.0000
  H   H12       1.0  0.995507348924067  0.527924358673415  0.5622273618510083  1.0000
  Zn  Zn1       1.0  0.047917449645823895  0.5626356510271138  0.41657539051612646  1.0000
  Zn  Zn2       1.0  0.25947515189851855  0.5626315265324283  0.4165705559543735  1.0000
  C   C24       1.0  0.15292324213260391  0.5594247991487045  0.6797715076580368  1.0000
  C   C25       1.0  0.15447165715236658  0.5658441989648593  0.15337458740449206  1.0000
  C   C26       1.0  0.15197295895750637  0.8259153256157024  0.4118714012400413  1.0000
  C   C27       1.0  0.15542187935112003  0.2993519409518326  0.42127476381123663  1.0000
  O   O1        1.0  0.23457644959500248  0.568281523497253  0.20707527868280873  1.0000
  O   O2        1.0  0.2333858590600313  0.556983252512451  0.6260667278933685  1.0000
  O   O3        1.0  0.232617406466049  0.7721777373193217  0.40973550247496  1.0000
  O   O4        1.0  0.23534483026445058  0.35308704796542556  0.42340639608472874  1.0000
  O   O5        1.0  0.07204769908564423  0.7721801295970208  0.4097395503798469  1.0000
  O   O6        1.0  0.07281614046172313  0.5569873763390827  0.6260707058035817  1.0000
  O   O7        1.0  0.07400673674805906  0.5682855803935041  0.20707752367201793  1.0000
  O   O8        1.0  0.07477511714779304  0.35309109558953744  0.423408749084502  1.0000
