data_image0
_chemical_formula_structural       NC9NC3OH6C9H7C6H4Zn2C4O8
_chemical_formula_sum              "N2 C31 O9 H17 Zn2"
_cell_length_a       15.78231758774541
_cell_length_b       9.275152443626249
_cell_length_c       10.681121600428286
_cell_angle_alpha    85.36323627709002
_cell_angle_beta     90.08384876913414
_cell_angle_gamma    90.20707041648353

_space_group_name_H-M_alt    "P 1"
_space_group_IT_number       1

loop_
  _space_group_symop_operation_xyz
  'x, y, z'

loop_
  _atom_site_type_symbol
  _atom_site_label
  _atom_site_symmetry_multiplicity
  _atom_site_fract_x
  _atom_site_fract_y
  _atom_site_fract_z
  _atom_site_occupancy
  N   N1        1.0  0.8071205873791206  0.5697870277391133  0.6163149605054195  1.0000
  C   C1        1.0  0.7580516909551964  0.4786352197171708  0.6398067148341053  1.0000
  C   C2        1.0  0.6971309910581671  0.3654936695123762  0.6689660299905817  1.0000
  C   C3        1.0  0.7159565083693321  0.2233696499838427  0.7055182559651667  1.0000
  C   C4        1.0  0.63882025167188  0.15449078654882184  0.7233047833596585  1.0000
  C   C5        1.0  0.577659126638481  0.2596788269515744  0.6962917583012185  1.0000
  C   C6        1.0  0.484453604282249  0.24023116593980154  0.7013745416848098  1.0000
  C   C7        1.0  0.4314108144902094  0.3594749941590199  0.670592755795991  1.0000
  C   C8        1.0  0.3431104079371665  0.34352837837623906  0.6747674211986359  1.0000
  C   C9        1.0  0.2893915548694827  0.46624166763446423  0.6430820714533207  1.0000
  N   N2        1.0  0.24621439851856153  0.5648873200306408  0.6176098966798387  1.0000
  C   C10       1.0  0.30717045866370135  0.20816045666445304  0.7097716461624124  1.0000
  C   C11       1.0  0.35928376800029027  0.08916316170857065  0.7404939930139913  1.0000
  C   C12       1.0  0.44739593214623874  0.10467169837648128  0.7364327859095314  1.0000
  O   O1        1.0  0.6148517698621823  0.3843403278900235  0.6641838349116613  1.0000
  H   H1        1.0  0.7781346249225116  0.17544033196718356  0.7177959447622313  1.0000
  H   H2        1.0  0.6294210667658976  0.04123586726119144  0.7524469740640225  1.0000
  H   H3        1.0  0.45863670535214535  0.4648152399537004  0.6433487090989067  1.0000
  H   H4        1.0  0.2389746217711522  0.19465450178542576  0.7133053240639116  1.0000
  H   H5        1.0  0.3313318029681591  0.9845430765032679  0.7675521937314949  1.0000
  H   H6        1.0  0.48592723485429284  0.010417460583575627  0.7607750033620009  1.0000
  C   C13       1.0  0.02417213634536906  0.14373273644317464  0.6182335804522688  1.0000
  C   C14       1.0  0.9936076268216498  0.2268131859290794  0.5117529607251157  1.0000
  C   C15       1.0  0.9709188472996698  0.16162500709758887  0.4033036718441303  1.0000
  C   C16       1.0  0.9784383209310623  0.012199160575338428  0.3991880129668944  1.0000
  C   C17       1.0  0.007346011878652798  0.9274490520135888  0.5047646092033844  1.0000
  C   C18       1.0  0.02917087486886482  0.9909304758323217  0.6157021151583832  1.0000
  C   C19       1.0  0.9554833887520644  0.9453057882164145  0.28688354842397984  1.0000
  C   C20       1.0  0.9362639970842849  0.889264888476085  0.19284617266571114  1.0000
  C   C21       1.0  0.9129450642925206  0.8212571648701603  0.0787483107424709  1.0000
  H   H7        1.0  0.14591717767936152  0.22402569637794786  0.868694942023192  1.0000
  H   H8        1.0  0.9891444838566508  0.3433804744337954  0.5113458790999295  1.0000
  H   H9        1.0  0.948265929949348  0.22811754063928147  0.32213046390553446  1.0000
  H   H10       1.0  0.1084220916690663  0.6947467549425033  0.7869974271762514  1.0000
  H   H11       1.0  0.9284340149762819  0.7043625012213336  0.09049332529069254  1.0000
  H   H12       1.0  0.84398498057537  0.834609228755789  0.061400815922135754  1.0000
  H   H13       1.0  0.9487257967405239  0.873206427930725  0.9977931561322976  1.0000
  C   C22       1.0  0.026671520789478976  0.567331569382101  0.24922263577298587  1.0000
  C   C23       1.0  0.9655544150905454  0.48778126038969666  0.1878610197471833  1.0000
  C   C24       1.0  0.9655543627373251  0.4877813534748696  0.056978879361910595  1.0000
  C   C25       1.0  0.02667145460050023  0.5673316408369262  0.9847130710416154  1.0000
  C   C26       1.0  0.08773811443083862  0.6468160241935133  0.046074157760861885  1.0000
  C   C27       1.0  0.08773810345877874  0.6468160019463707  0.1769664564587745  1.0000
  H   H14       1.0  0.9176479423649343  0.4254259684493371  0.24094556888936117  1.0000
  H   H15       1.0  0.9176479250705062  0.4254260365481024  0.012441539408754698  1.0000
  H   H16       1.0  0.13565084357674384  0.709179533585541  0.9930339375324824  1.0000
  H   H17       1.0  0.13565080058984846  0.7091794834938918  0.22145830504209263  1.0000
  Zn  Zn1       1.0  0.9338335499453005  0.5683692247786027  0.6166958884029816  1.0000
  Zn  Zn2       1.0  0.11950133799289347  0.5662933496612006  0.617239241032179  1.0000
  C   C28       1.0  0.026635692223034402  0.5615849737617848  0.8457068116141448  1.0000
  C   C29       1.0  0.02670123394073775  0.5730793981013993  0.3882284412289119  1.0000
  C   C30       1.0  0.028221640554034734  0.8307920896028481  0.611190330179558  1.0000
  C   C31       1.0  0.02511521202845367  0.3038705498672054  0.6227449944218221  1.0000
  O   O2        1.0  0.0971711267621011  0.5742143449325616  0.4350862776688605  1.0000
  O   O3        1.0  0.09708334804877154  0.5588733975250975  0.7992610100079663  1.0000
  O   O4        1.0  0.09836307154910723  0.7762615587751811  0.6098872847450915  1.0000
  O   O5        1.0  0.09589133996681704  0.35682619470991545  0.6244599088193519  1.0000
  O   O6        1.0  0.957443484612082  0.7778363804398524  0.6094752204237976  1.0000
  O   O7        1.0  0.9561637713337354  0.5604499522928639  0.798848873736338  1.0000
  O   O8        1.0  0.9562515498068952  0.5757908494316886  0.434672635925014  1.0000
  O   O9        1.0  0.9549717629472649  0.3584026888915697  0.6240463609958782  1.0000
