data_image0
_chemical_formula_structural       NC5OC5NC4H8C6NCH9C7F3H5Zn2C4O8
_chemical_formula_sum              "N3 C32 O9 H22 F3 Zn2"
_cell_length_a       19.189071930511275
_cell_length_b       9.273386996610926
_cell_length_c       10.299327507215196
_cell_angle_alpha    85.45811780594276
_cell_angle_beta     89.9592371194645
_cell_angle_gamma    89.38971707573329

_space_group_name_H-M_alt    "P 1"
_space_group_IT_number       1

loop_
  _space_group_symop_operation_xyz
  'x, y, z'

loop_
  _atom_site_type_symbol
  _atom_site_label
  _atom_site_symmetry_multiplicity
  _atom_site_fract_x
  _atom_site_fract_y
  _atom_site_fract_z
  _atom_site_occupancy
  N   N1        1.0  0.6484592675386684  0.5789266354139089  0.5646497702117748  1.0000
  C   C1        1.0  0.5937456783691015  0.6301610919748836  0.5462817248949479  1.0000
  C   C2        1.0  0.5256890386283237  0.6938882183228332  0.5234346380024266  1.0000
  C   C3        1.0  0.5154648829466729  0.8015745877343947  0.42185393483639216  1.0000
  C   C4        1.0  0.44935478089281705  0.863558463051289  0.3997864070730963  1.0000
  C   C5        1.0  0.3928108803077738  0.8177411611102968  0.4779444152455299  1.0000
  O   O1        1.0  0.327509731589829  0.8837596403900261  0.4536059220948063  1.0000
  C   C6        1.0  0.2628710104912896  0.8175306776148583  0.4773804948137983  1.0000
  C   C7        1.0  0.2056659967093469  0.903718136579657  0.5075139149441638  1.0000
  C   C8        1.0  0.14017524276200571  0.8420512551555206  0.5304316742620034  1.0000
  C   C9        1.0  0.1312349242235055  0.6933947098610777  0.5221111789156705  1.0000
  C   C10       1.0  0.06381544317689332  0.6298891821384616  0.5455524423391378  1.0000
  N   N2        1.0  0.009614159755615205  0.5788329466788341  0.5643986149293967  1.0000
  C   C11       1.0  0.1879687717160168  0.6068650881239148  0.490060792562772  1.0000
  C   C12       1.0  0.25345043581596144  0.6685757768045335  0.4671866057324639  1.0000
  C   C13       1.0  0.40351183292207865  0.7110572612668424  0.5811420873257269  1.0000
  C   C14       1.0  0.4696130342209854  0.649068816897793  0.6032710026047825  1.0000
  H   H1        1.0  0.5585410409135763  0.8377013759701383  0.35990653264471395  1.0000
  H   H2        1.0  0.4419106662193034  0.9469289276813544  0.3211900936937384  1.0000
  H   H3        1.0  0.2121162864486303  0.018776518332592747  0.5139199775462509  1.0000
  H   H4        1.0  0.09657662613469899  0.9102197095755639  0.5544356348938257  1.0000
  H   H5        1.0  0.1815113756137544  0.4919770865721748  0.48207955548881776  1.0000
  H   H6        1.0  0.2963393689852661  0.6006396925808839  0.4397684232817314  1.0000
  H   H7        1.0  0.3611319307981541  0.6773488658562368  0.6455392480650923  1.0000
  H   H8        1.0  0.4770576015073903  0.5668622069642476  0.6829571224977756  1.0000
  C   C15       1.0  0.8311829184974961  0.1552251674014966  0.5651608892942316  1.0000
  C   C16       1.0  0.8434395917838003  0.23871563605276358  0.4477240007579819  1.0000
  C   C17       1.0  0.8491347656764578  0.17422931869406577  0.33028441657931307  1.0000
  C   C18       1.0  0.8426596321206696  0.023930795773833936  0.3272791047893757  1.0000
  C   C19       1.0  0.8316311136934122  0.9394771569603307  0.4443072193624549  1.0000
  C   C20       1.0  0.8268972382274399  0.0025233296394495605  0.5638987493131187  1.0000
  N   N3        1.0  0.8477661175992861  0.9544085790455561  0.20741535541577827  1.0000
  C   C21       1.0  0.8593973432318476  0.032321538086944365  0.08067061722906343  1.0000
  H   H9        1.0  0.8453831562358791  0.417333434849622  0.7783728186348824  1.0000
  H   H10       1.0  0.8469942901950999  0.3553608525171865  0.44612816819085443  1.0000
  H   H11       1.0  0.8579384436465662  0.2428427125202115  0.24206028443522287  1.0000
  H   H12       1.0  0.82834216407278  0.8230772551291542  0.4422606930414734  1.0000
  H   H13       1.0  0.8525007166969475  0.8711061239120154  0.8802036647669893  1.0000
  H   H14       1.0  0.8428388198846017  0.8420423202496937  0.21011190880815533  1.0000
  H   H15       1.0  0.8161998763087255  0.11090976936335295  0.058135516927260156  1.0000
  H   H16       1.0  0.9098374099201068  0.08986017460585914  0.08084510992856697  1.0000
  H   H17       1.0  0.8611674952369094  0.9548963017148124  0.00378312813575632  1.0000
  C   C22       1.0  0.829106524025023  0.5789328385748707  0.18314809121993014  1.0000
  C   C23       1.0  0.8965349963550178  0.6367616324427932  0.1777443515302033  1.0000
  C   C24       1.0  0.9300287507309906  0.6683828164343847  0.05771883587525895  1.0000
  C   C25       1.0  0.89636053606872  0.636608692677887  0.9425072436341582  1.0000
  C   C26       1.0  0.8289736692780301  0.5788157002392638  0.9459115348699498  1.0000
  C   C27       1.0  0.7956312600325703  0.5508477972861086  0.066704056992958  1.0000
  C   C28       1.0  0.0033946182290423  0.7255728274119067  0.053320055656802756  1.0000
  F   F1        1.0  0.015141283736952232  0.8098170931850341  0.15607725491877766  1.0000
  F   F2        1.0  0.05000778090286562  0.6105358522433525  0.06132834553008304  1.0000
  F   F3        1.0  0.014949937702344988  0.8097975690043413  0.9384340135533695  1.0000
  H   H18       1.0  0.7023460363137494  0.46739098622703396  0.4007549395486081  1.0000
  H   H19       1.0  0.9231571927411789  0.6570458680121054  0.267092069263583  1.0000
  H   H20       1.0  0.9228630873917126  0.6567841417311004  0.8500786441476441  1.0000
  H   H21       1.0  0.7436603433534829  0.5062794901956746  0.0700640362820042  1.0000
  H   H22       1.0  0.8035334868559736  0.5542289840988336  0.6199344200386889  1.0000
  Zn  Zn1       1.0  0.7526807949983877  0.5788957490334428  0.5645847922501896  1.0000
  Zn  Zn2       1.0  0.9053927072964665  0.5788520736065457  0.5644742291360207  1.0000
  C   C29       1.0  0.8290262782103874  0.5730904928901623  0.8017414627505632  1.0000
  C   C30       1.0  0.8290488824644097  0.5846591495610355  0.32731768218743534  1.0000
  C   C31       1.0  0.8277046492900395  0.8423667511791368  0.558961956806642  1.0000
  C   C32       1.0  0.8303704680299256  0.3153811579693029  0.5700972599920342  1.0000
  O   O2        1.0  0.8869829441174508  0.5865580832896858  0.3756603651716813  1.0000
  O   O3        1.0  0.8869970300485253  0.5711573222275652  0.7533144926835855  1.0000
  O   O4        1.0  0.8859290165066016  0.7886013062749961  0.5572683222596344  1.0000
  O   O5        1.0  0.888050905513907  0.36911410959242597  0.5717064382400505  1.0000
  O   O6        1.0  0.7700225446678598  0.788633713064038  0.557352583177056  1.0000
  O   O7        1.0  0.7710905494515283  0.571191462335841  0.7533986817712257  1.0000
  O   O8        1.0  0.7710764640931017  0.5865921733638997  0.37574299288108404  1.0000
  O   O9        1.0  0.772144425521938  0.36914818933294424  0.5717891633359318  1.0000
