data_image0
_chemical_formula_structural       NC5NC3BrH3C9H6C9H8Zn2C4O8
_chemical_formula_sum              "N2 C30 Br1 H17 Zn2 O8"
_cell_length_a       13.839083392302014
_cell_length_b       9.275152443626249
_cell_length_c       9.275155815604961
_cell_angle_alpha    85.85171904572837
_cell_angle_beta     90.35828541235293
_cell_angle_gamma    90.59950914120974

_space_group_name_H-M_alt    "P 1"
_space_group_IT_number       1

loop_
  _space_group_symop_operation_xyz
  'x, y, z'

loop_
  _atom_site_type_symbol
  _atom_site_label
  _atom_site_symmetry_multiplicity
  _atom_site_fract_x
  _atom_site_fract_y
  _atom_site_fract_z
  _atom_site_occupancy
  N   N1        1.0  0.9137321240733104  0.5656697987443078  0.40482423734971396  1.0000
  C   C1        1.0  0.8413136704134699  0.5020229369334113  0.40750770959575333  1.0000
  C   C2        1.0  0.7510868375650149  0.4228242336299455  0.41084671919782956  1.0000
  C   C3        1.0  0.6640282697951594  0.4990305837227043  0.4076340611548006  1.0000
  C   C4        1.0  0.5754932911996024  0.42429707865555333  0.4107845679522819  1.0000
  C   C5        1.0  0.48624766642958017  0.5028550193572849  0.4074726121916093  1.0000
  N   N2        1.0  0.4145057905430497  0.5660094433254128  0.4048098623873771  1.0000
  C   C6        1.0  0.573949012134503  0.273045695079593  0.417160914010154  1.0000
  C   C7        1.0  0.6605617412375535  0.19671806640870426  0.42037859348921924  1.0000
  C   C8        1.0  0.7492880813423188  0.2707373876951076  0.4172582149112827  1.0000
  Br  Br1       1.0  0.8659715856886295  0.16063783612128946  0.42189980068521593  1.0000
  H   H1        1.0  0.6651698640644426  0.6162376033221462  0.4026927332294745  1.0000
  H   H2        1.0  0.5058699411546577  0.21418817654516784  0.41964191882491675  1.0000
  H   H3        1.0  0.6586585768040094  0.07976027077716363  0.42530903737918324  1.0000
  C   C9        1.0  0.16127932849909743  0.14221806518297386  0.4062885251697146  1.0000
  C   C10       1.0  0.12590210513055822  0.22387856955542884  0.2838503329078499  1.0000
  C   C11       1.0  0.09949719980262219  0.1573446626011099  0.159119516188853  1.0000
  C   C12       1.0  0.10805274352311889  0.007967497432249228  0.15435725533496392  1.0000
  C   C13       1.0  0.14153602492196013  0.9246086464874856  0.2757607319466824  1.0000
  C   C14       1.0  0.16696781603859967  0.9894501950606678  0.4033580666635992  1.0000
  C   C15       1.0  0.0813254855913339  0.9396869909528073  0.025190632435912127  1.0000
  C   C16       1.0  0.05894761048891395  0.8824846049333249  0.9170338375906879  1.0000
  C   C17       1.0  0.03179647214783187  0.8130676265398363  0.7858045355952856  1.0000
  H   H4        1.0  0.3013467468736151  0.22644436706225646  0.6941141135062967  1.0000
  H   H5        1.0  0.12081009797252772  0.3403886963400291  0.2833971375945268  1.0000
  H   H6        1.0  0.07326632810289957  0.2227624360018836  0.06577917842279479  1.0000
  H   H7        1.0  0.1455873521772546  0.8082667246764429  0.2717401291469457  1.0000
  H   H8        1.0  0.25818646901022113  0.6959088012750628  0.600221236890053  1.0000
  H   H9        1.0  0.07220769775029101  0.8646398180426433  0.6925149146749114  1.0000
  C   C18       1.0  0.16232862746813947  0.5621865680111977  0.9816047420950805  1.0000
  C   C19       1.0  0.08720889440718649  0.6324264130238584  0.04917865393213862  1.0000
  C   C20       1.0  0.018625744469363163  0.7122579951601165  0.967619579140001  1.0000
  C   C21       1.0  0.0238917374890828  0.7235215304726204  0.816998686559526  1.0000
  C   C22       1.0  0.09706176618842832  0.6525053016602153  0.7477191464571113  1.0000
  C   C23       1.0  0.16591848936966994  0.5694816138744552  0.828041842220304  1.0000
  C   C24       1.0  0.9533779785684142  0.806722034631481  0.7331153922468913  1.0000
  C   C25       1.0  0.8943354327247414  0.8763910968342448  0.6628479388670132  1.0000
  C   C26       1.0  0.822697925293075  0.9609227245562744  0.5775787884693938  1.0000
  H   H10       1.0  0.38583134351058423  0.44595001570386716  0.09495873262486089  1.0000
  H   H11       1.0  0.08284082481979471  0.6284246429970399  0.16598414764214997  1.0000
  H   H12       1.0  0.9619676232268776  0.76643973822007  0.022246704033928474  1.0000
  H   H13       1.0  0.09889267792152313  0.6592899199276472  0.6305493368080963  1.0000
  H   H14       1.0  0.3150087530312462  0.48604288084651137  0.5547441185718629  1.0000
  H   H15       1.0  0.8423614434783075  0.9650808079622156  0.4615649020173884  1.0000
  H   H16       1.0  0.7503859458795133  0.9095042424265105  0.592784809810118  1.0000
  H   H17       1.0  0.8210003554812111  0.07231078337005714  0.6136983081499539  1.0000
  Zn  Zn1       1.0  0.05824459921821945  0.5657640169046043  0.4048284314905899  1.0000
  Zn  Zn2       1.0  0.2699932783133996  0.5659035031976904  0.4048175365965195  1.0000
  C   C27       1.0  0.16519920213775396  0.5623558466503418  0.6680670185147841  1.0000
  C   C28       1.0  0.16304100050373146  0.5693134963600226  0.14157908461175842  1.0000
  C   C29       1.0  0.1658632336441359  0.8292557595694816  0.398168944131825  1.0000
  C   C30       1.0  0.16237688543135165  0.30241185088366995  0.41147724182971945  1.0000
  O   O1        1.0  0.24363755732567596  0.5717519994794489  0.1952638225564425  1.0000
  O   O2        1.0  0.245314984151757  0.560022118556228  0.614373600491547  1.0000
  O   O3        1.0  0.24585012108884285  0.7755471858504552  0.39642899072128457  1.0000
  O   O4        1.0  0.24310234774409525  0.35622694152580525  0.41320832423461695  1.0000
  O   O5        1.0  0.08513545752807006  0.775440578530395  0.3964376438486241  1.0000
  O   O6        1.0  0.08460033189752836  0.5599172437472857  0.6143821707800173  1.0000
  O   O7        1.0  0.08292289744934345  0.5716470594667991  0.19527066027722384  1.0000
  O   O8        1.0  0.08238768825280363  0.3561219921264769  0.41321527004361847  1.0000
