data_image0
_chemical_formula_structural       NC8OC7NH8C6H6C12H10Zn2C4O8
_chemical_formula_sum              "N2 C37 O9 H24 Zn2"
_cell_length_a       19.090736677544083
_cell_length_b       10.68111822825955
_cell_length_c       13.024585202197207
_cell_angle_alpha    85.80459198147678
_cell_angle_beta     93.99188052093368
_cell_angle_gamma    89.99831139161007

_space_group_name_H-M_alt    "P 1"
_space_group_IT_number       1

loop_
  _space_group_symop_operation_xyz
  'x, y, z'

loop_
  _atom_site_type_symbol
  _atom_site_label
  _atom_site_symmetry_multiplicity
  _atom_site_fract_x
  _atom_site_fract_y
  _atom_site_fract_z
  _atom_site_occupancy
  N   N1        1.0  0.6056445697046621  0.36488701114739935  0.8647944718099976  1.0000
  C   C1        1.0  0.5521080726647539  0.4157116455751495  0.8647881256313689  1.0000
  C   C2        1.0  0.48551473112495597  0.4789299641531659  0.8647807344001917  1.0000
  C   C3        1.0  0.4256477228850642  0.4301579786511753  0.8140907928243367  1.0000
  C   C4        1.0  0.36094988446547144  0.49152541112213266  0.8139944906155825  1.0000
  C   C5        1.0  0.35525179786373184  0.602061659921722  0.8654085239255164  1.0000
  C   C6        1.0  0.4158550691470135  0.6512081756448481  0.9149859720997172  1.0000
  C   C7        1.0  0.48051323397137985  0.5896914140062793  0.9150222361212711  1.0000
  C   C8        1.0  0.2871425872735089  0.6690485417884293  0.8647039519977384  1.0000
  O   O1        1.0  0.2871391134241792  0.7871630742090951  0.8646704274457668  1.0000
  C   C9        1.0  0.21903738471707035  0.6021834188926753  0.8640374734452798  1.0000
  C   C10       1.0  0.21334596196641506  0.48251192886698746  0.9155185401726913  1.0000
  C   C11       1.0  0.1486517732513464  0.4211583462008721  0.9154569185640014  1.0000
  C   C12       1.0  0.08878188815312552  0.4789340100212529  0.8647352397188627  1.0000
  C   C13       1.0  0.09377667824150032  0.598622705381603  0.8144269156763431  1.0000
  C   C14       1.0  0.15843116879012112  0.6601361142352757  0.8144280044014743  1.0000
  C   C15       1.0  0.022192251097697593  0.4157139583015996  0.864763407427516  1.0000
  N   N2        1.0  0.9686587922995906  0.36488780064297566  0.8647859405204922  1.0000
  H   H1        1.0  0.42902303560658195  0.3450230670292936  0.7742558106682906  1.0000
  H   H2        1.0  0.31559636788255946  0.4533135510840851  0.7727469536005953  1.0000
  H   H3        1.0  0.4130548454002552  0.7366670213503695  0.9544765524176426  1.0000
  H   H4        1.0  0.526570321871208  0.6285397616912243  0.9541783946821875  1.0000
  H   H5        1.0  0.2587016975075926  0.43697371119197514  0.9567911629633661  1.0000
  H   H6        1.0  0.14528161873485612  0.328945391905695  0.9553432740177765  1.0000
  H   H7        1.0  0.04771720680807657  0.6444261832600985  0.7752455816654326  1.0000
  H   H8        1.0  0.1612263079403028  0.7526116598895368  0.7748854379755332  1.0000
  C   C16       1.0  0.7871552631590781  0.9971374168706268  0.8647946217978143  1.0000
  C   C17       1.0  0.8217879740755102  0.9230306943749323  0.9465258301913296  1.0000
  C   C18       1.0  0.8217879611309716  0.792148455965108  0.9465257831391005  1.0000
  C   C19       1.0  0.7871552535121287  0.7326278210486821  0.8647946662870897  1.0000
  C   C20       1.0  0.7525512061191748  0.8067234797193288  0.7831309984450012  1.0000
  C   C21       1.0  0.7525512187776641  0.9376157380259297  0.7831310402142913  1.0000
  H   H9        1.0  0.7521320490026077  0.3032224088330846  0.7821426665456762  1.0000
  H   H10       1.0  0.8489347668807463  0.9661249825320571  0.010590576753586541  1.0000
  H   H11       1.0  0.8489346798963836  0.7376209538457175  0.010590558576359156  1.0000
  H   H12       1.0  0.7254008731922612  0.7636746930065971  0.719057887005719  1.0000
  H   H13       1.0  0.7254008544338564  0.9920991319988335  0.7190578786378199  1.0000
  H   H14       1.0  0.7521322936704925  0.4412930565595908  0.7821423881436711  1.0000
  C   C22       1.0  0.7727977745130586  0.3633795720087498  0.5625760987208737  1.0000
  C   C23       1.0  0.7573124823578619  0.46345087749600394  0.48814667900873354  1.0000
  C   C24       1.0  0.7812449718901913  0.46153361730601644  0.3892660156818007  1.0000
  C   C25       1.0  0.8206054142643248  0.35920940942208945  0.3628178404331341  1.0000
  C   C26       1.0  0.8367560874948359  0.2598506523657511  0.43717405854250657  1.0000
  C   C27       1.0  0.8128588618192243  0.2616628174782212  0.5360979847195627  1.0000
  C   C28       1.0  0.846947595936332  0.3580536750251083  0.2586171484324617  1.0000
  C   C29       1.0  0.9200017643234456  0.35397097301683916  0.25093321487396936  1.0000
  C   C30       1.0  0.94815981446268  0.36061179635045776  0.1547082231702363  1.0000
  C   C31       1.0  0.9038554495277058  0.3716793489922081  0.06486068119535693  1.0000
  C   C32       1.0  0.8311611864799479  0.3745911612226486  0.07080198120916048  1.0000
  C   C33       1.0  0.8015127058907067  0.36638564318684047  0.16701315696406846  1.0000
  H   H15       1.0  0.7462254929552937  0.26559562351845534  0.8125191414508957  1.0000
  H   H16       1.0  0.7268317834774713  0.5433926874009622  0.5063301877223956  1.0000
  H   H17       1.0  0.7691862260257577  0.5399319456185864  0.33326889422552164  1.0000
  H   H18       1.0  0.8675304619258868  0.1805559188885195  0.41830918160447905  1.0000
  H   H19       1.0  0.8258230551432593  0.1833974691904212  0.5917769384032876  1.0000
  H   H20       1.0  0.9553891423123199  0.347860284144188  0.31987923027567766  1.0000
  H   H21       1.0  0.004504915902629577  0.3581276953798853  0.14982569814282073  1.0000
  H   H22       1.0  0.925861861699889  0.37720177239658753  0.9902932168722197  1.0000
  H   H23       1.0  0.7979927350458734  0.38097096273127223  0.999669934524143  1.0000
  H   H24       1.0  0.6290677797216818  0.4100306371946155  0.08248269602819742  1.0000
  Zn  Zn1       1.0  0.7104029236390598  0.3648839145871692  0.864797944980853  1.0000
  Zn  Zn2       1.0  0.8639008551609321  0.3648806873456757  0.8647908695036324  1.0000
  C   C34       1.0  0.7960834278606325  0.3608285009380376  0.05276163570786407  1.0000
  C   C35       1.0  0.7782220319307168  0.36893768156541396  0.6768272797111597  1.0000
  C   C36       1.0  0.7869568120849058  0.5935840571487634  0.860693555364101  1.0000
  C   C37       1.0  0.7873485979350074  0.13618062104544124  0.8688954149258983  1.0000
  O   O2        1.0  0.8382941273227789  0.37079634577090537  0.7151683346418692  1.0000
  O   O3        1.0  0.8525126967190633  0.35896644112152604  0.014414914396617684  1.0000
  O   O4        1.0  0.8451421046361274  0.5469195016960111  0.8593185806417694  1.0000
  O   O5        1.0  0.8456646633613828  0.18284329377221642  0.8702645912338746  1.0000
  O   O6        1.0  0.7286390630570411  0.5469213081630662  0.8593242232476118  1.0000
  O   O7        1.0  0.7360096525298452  0.3589697519002657  0.014420502128484891  1.0000
  O   O8        1.0  0.7217910243977532  0.3707996067560859  0.7151726850305056  1.0000
  O   O9        1.0  0.7291615640991214  0.18284654618403895  0.8702690187823542  1.0000
