data_image0
_chemical_formula_structural       NC9NC3SH6C7OCH9C8H6Zn2C4O8
_chemical_formula_sum              "N2 C32 S1 H21 O9 Zn2"
_cell_length_a       16.77567553997237
_cell_length_b       10.30083208314754
_cell_length_c       9.275144076552241
_cell_angle_alpha    85.93959476357365
_cell_angle_beta     90.85075607413872
_cell_angle_gamma    90.88775763152196

_space_group_name_H-M_alt    "P 1"
_space_group_IT_number       1

loop_
  _space_group_symop_operation_xyz
  'x, y, z'

loop_
  _atom_site_type_symbol
  _atom_site_label
  _atom_site_symmetry_multiplicity
  _atom_site_fract_x
  _atom_site_fract_y
  _atom_site_fract_z
  _atom_site_occupancy
  N   N1        1.0  0.7435951621499969  0.4296020094870405  0.4172580669472643  1.0000
  C   C1        1.0  0.689049831034068  0.47922395399729634  0.4634216759574919  1.0000
  C   C2        1.0  0.6213582601595461  0.5408015032392589  0.5207071826272756  1.0000
  C   C3        1.0  0.6239593661575669  0.62956513521023  0.6261954476071188  1.0000
  C   C4        1.0  0.5484761695081314  0.6732607292543001  0.6611630735663394  1.0000
  C   C5        1.0  0.48612568642257337  0.6187132797225374  0.5827947779625888  1.0000
  C   C6        1.0  0.3996876024380463  0.644853793537093  0.5948333824851015  1.0000
  C   C7        1.0  0.3425859340842158  0.5648541485316647  0.5301542462162281  1.0000
  C   C8        1.0  0.26099240676769153  0.5889767857444466  0.5410204854597398  1.0000
  C   C9        1.0  0.20321647727590106  0.5062987552082069  0.4747931616647507  1.0000
  N   N2        1.0  0.1567816964848447  0.4398374685867523  0.4215561785131925  1.0000
  C   C10       1.0  0.23566991202746307  0.6934114305792551  0.6163869497949303  1.0000
  C   C11       1.0  0.2916776411276224  0.7735665619754065  0.6805536817027584  1.0000
  C   C12       1.0  0.3731149551226208  0.7498092577854887  0.6700143558006859  1.0000
  S   S1        1.0  0.5262147359850898  0.5159089636240065  0.4705874822476493  1.0000
  H   H1        1.0  0.6785872786582634  0.6617517545522116  0.6769905051358377  1.0000
  H   H2        1.0  0.5405716327907223  0.7416827733689979  0.7427133104515896  1.0000
  H   H3        1.0  0.36112713710060024  0.4831861578675123  0.47195555579510606  1.0000
  H   H4        1.0  0.1727249449353957  0.7129268543179659  0.6253601142971847  1.0000
  H   H5        1.0  0.2719542420967541  0.8546207926153269  0.7384001158045046  1.0000
  H   H6        1.0  0.4147739913635686  0.8147659230432858  0.7196814632764799  1.0000
  C   C13       1.0  0.9502151725579681  0.053384623472245714  0.41955867165508587  1.0000
  C   C14       1.0  0.9273726658780866  0.061312898943229666  0.27295858188902566  1.0000
  C   C15       1.0  0.9149421828249165  0.9481375854203719  0.19956518246473579  1.0000
  C   C16       1.0  0.9273134230630389  0.8260501005156043  0.27257712104669807  1.0000
  C   C17       1.0  0.9501693969485843  0.8160451529521251  0.4192681849556569  1.0000
  C   C18       1.0  0.9612995728463402  0.9302371217626818  0.4919789124019174  1.0000
  C   C19       1.0  0.8927823850478351  0.9578676311334396  0.04166917416873363  1.0000
  O   O1        1.0  0.9632294176894932  0.965009872879838  0.9600009222818727  1.0000
  C   C20       1.0  0.9432282580990528  0.974209484392271  0.8114962725626322  1.0000
  H   H7        1.0  0.9191714400203803  0.15543234246467025  0.21524973693192467  1.0000
  H   H8        1.0  0.9190708024720645  0.7390194597080121  0.21460639571084889  1.0000
  H   H9        1.0  0.9789234574737183  0.9233597778092238  0.6050390860075932  1.0000
  H   H10       1.0  0.9941579532449818  0.5899708634417462  0.6955592767163121  1.0000
  H   H11       1.0  0.8559685687882382  0.046075239470598994  0.01718932946289109  1.0000
  H   H12       1.0  0.8559991112790012  0.8709844499940803  0.016859133011067895  1.0000
  H   H13       1.0  0.9991131012957823  0.9797335305237932  0.7487657177453495  1.0000
  H   H14       1.0  0.9091355877684857  0.06408391150518167  0.7810827468168706  1.0000
  H   H15       1.0  0.9091478579286183  0.8865999529215739  0.7807256843379373  1.0000
  C   C21       1.0  0.9483144651120027  0.4320110728269424  0.9961093910213854  1.0000
  C   C22       1.0  0.8963263704109393  0.5154117654876066  0.06151010747053154  1.0000
  C   C23       1.0  0.8507353296708258  0.6054049401793998  0.9780660315371521  1.0000
  C   C24       1.0  0.8563077387713616  0.6138412446079775  0.8276903632158201  1.0000
  C   C25       1.0  0.9066406553418158  0.5303043203356426  0.7605166323689432  1.0000
  C   C26       1.0  0.952070079039068  0.437418740125862  0.8427174828633694  1.0000
  C   C27       1.0  0.8095585021666162  0.7073754183263266  0.7418629672150493  1.0000
  C   C28       1.0  0.7704201523438223  0.7856855475522335  0.6699891808046129  1.0000
  H   H16       1.0  0.11406914878044994  0.2656507924885756  0.11650250601361868  1.0000
  H   H17       1.0  0.8923384764895627  0.5131300315023772  0.1781395774361368  1.0000
  H   H18       1.0  0.8116695983048934  0.6693662838676624  0.03107335033011216  1.0000
  H   H19       1.0  0.9089260668893554  0.53575691243321  0.6434537431487444  1.0000
  H   H20       1.0  0.06194464346604891  0.3212426807326143  0.5740915034109666  1.0000
  H   H21       1.0  0.7360648056943899  0.8544251292719467  0.6068974408972095  1.0000
  Zn  Zn1       1.0  0.8628319106869955  0.4325523280708375  0.4185067435246237  1.0000
  Zn  Zn2       1.0  0.0375449961324792  0.4368766321994253  0.42031934381587754  1.0000
  C   C29       1.0  0.9513587178999791  0.431223280858418  0.6826923410104673  1.0000
  C   C30       1.0  0.949020097310184  0.4382073660117832  0.15613390698203067  1.0000
  C   C31       1.0  0.9501484428207285  0.67184928752971  0.41357879760601834  1.0000
  C   C32       1.0  0.9502303132066868  0.19757979819092134  0.42524752721433745  1.0000
  O   O2        1.0  0.01555961966381347  0.4419222842475725  0.2105274709025289  1.0000
  O   O3        1.0  0.017422383031924227  0.4307894271121243  0.6296740841895478  1.0000
  O   O4        1.0  0.016444183456312933  0.6250979580821197  0.41236298408017014  1.0000
  O   O5        1.0  0.016537759141666438  0.24761376040102356  0.4278384623079193  1.0000
  O   O6        1.0  0.8838390880567728  0.6218151983949318  0.41098762440644776  1.0000
  O   O7        1.0  0.8848172871940965  0.4275082271001982  0.6282986470618336  1.0000
  O   O8        1.0  0.8829545161936128  0.438641027915023  0.20915030070118526  1.0000
  O   O9        1.0  0.8839326561481886  0.24433249547072003  0.4264614001844288  1.0000
