data_image0
_chemical_formula_structural       NC9NC3OH6C8NH6C8NH11Zn2C4O8
_chemical_formula_sum              "N4 C32 O9 H23 Zn2"
_cell_length_a       15.78231758774541
_cell_length_b       9.27426342843186
_cell_length_c       9.275652972338538
_cell_angle_alpha    85.89520880153039
_cell_angle_beta     90.52078220685846
_cell_angle_gamma    90.24871893605766

_space_group_name_H-M_alt    "P 1"
_space_group_IT_number       1

loop_
  _space_group_symop_operation_xyz
  'x, y, z'

loop_
  _atom_site_type_symbol
  _atom_site_label
  _atom_site_symmetry_multiplicity
  _atom_site_fract_x
  _atom_site_fract_y
  _atom_site_fract_z
  _atom_site_occupancy
  N   N1        1.0  0.8006493869638879  0.5591289774103203  0.4116972551468763  1.0000
  C   C1        1.0  0.7516618866289233  0.46816469351434625  0.43848543053577704  1.0000
  C   C2        1.0  0.6908422208126204  0.35525590889498737  0.4717364565108854  1.0000
  C   C3        1.0  0.7097942567515715  0.21342369949303966  0.5134169680663023  1.0000
  C   C4        1.0  0.6327196881360678  0.1446868040817635  0.5336997185416996  1.0000
  C   C5        1.0  0.5714651309329968  0.24965917359820922  0.5028971859035247  1.0000
  C   C6        1.0  0.4782773409068678  0.23025205819527675  0.5086939530895431  1.0000
  C   C7        1.0  0.42512781010547046  0.34925018906572364  0.4735922556509195  1.0000
  C   C8        1.0  0.3368419793883251  0.3333368720975305  0.47835341329918823  1.0000
  C   C9        1.0  0.28301323845531545  0.4557972549846072  0.44222126120206307  1.0000
  N   N2        1.0  0.2397477400099869  0.554239593868137  0.41317424357873733  1.0000
  C   C10       1.0  0.3010235159735045  0.19824832710037607  0.5182707674974443  1.0000
  C   C11       1.0  0.35324336738854845  0.07949625339724786  0.553304729025023  1.0000
  C   C12       1.0  0.4413413497701598  0.09497239671728641  0.5486729563614057  1.0000
  O   O1        1.0  0.6085465583189119  0.37406436349532535  0.4662840127646808  1.0000
  H   H1        1.0  0.772014786053895  0.1655924183052753  0.5274166946863634  1.0000
  H   H2        1.0  0.6234213986082854  0.031664532013174755  0.5669307222511173  1.0000
  H   H3        1.0  0.45225913985524985  0.45437299569586115  0.4425242357448118  1.0000
  H   H4        1.0  0.23284001345936048  0.18477055905816586  0.5223008647913325  1.0000
  H   H5        1.0  0.32538531911456897  0.9750921239285213  0.5841608219644387  1.0000
  H   H6        1.0  0.47995708249566016  0.0009124517818201977  0.5764314775155899  1.0000
  C   C13       1.0  0.0175228136863097  0.13313267491492997  0.4127330447409747  1.0000
  C   C14       1.0  0.005980411077543429  0.21574706463301999  0.2809658814086273  1.0000
  C   C15       1.0  0.00275357587336278  0.15000571971204948  0.15041912240486766  1.0000
  C   C16       1.0  0.011678069488457052  0.00011100673176667445  0.14841279788621886  1.0000
  C   C17       1.0  0.020942649585815147  0.9160115163580528  0.2792887496192584  1.0000
  C   C18       1.0  0.022882389064604148  0.9802248542373845  0.41215095519734346  1.0000
  C   C19       1.0  0.0069354365846803195  0.9292430598375496  0.007763096290457129  1.0000
  C   C20       1.0  0.9188821618646242  0.8910746777992448  0.9754325408644426  1.0000
  N   N3        1.0  0.8493836325035777  0.8609479045014107  0.9499242545214434  1.0000
  H   H7        1.0  0.09213131781505113  0.21277311952346964  0.7452930407136549  1.0000
  H   H8        1.0  0.9940827491468468  0.21636751277094549  0.05050172438639944  1.0000
  H   H9        1.0  0.02459253388940662  0.799468716547183  0.2774024293259827  1.0000
  H   H10       1.0  0.06982518982308816  0.6837043832495767  0.6379957440125008  1.0000
  H   H11       1.0  0.046105721849629216  0.8297286192960249  0.01347281270954181  1.0000
  H   H12       1.0  0.031554538496189936  0.0031868727037063327  0.9181475747709196  1.0000
  C   C21       1.0  0.018298600405386  0.5538886380566339  0.9891668403266838  1.0000
  C   C22       1.0  0.9639390015437244  0.6488473808709088  0.055064278967567944  1.0000
  C   C23       1.0  0.9163226281587681  0.752148075672388  0.9721312635023693  1.0000
  C   C24       1.0  0.9219125752165634  0.7591132366967459  0.8213597115288644  1.0000
  C   C25       1.0  0.9744070526286889  0.6642394702464061  0.7540478763981033  1.0000
  C   C26       1.0  0.022106622352782605  0.5594688565121737  0.8357171299688826  1.0000
  C   C27       1.0  0.8574797803627509  0.8514856364072542  0.044407153364704355  1.0000
  C   C28       1.0  0.7699166390554089  0.7819837128568714  0.06494990603418183  1.0000
  N   N4        1.0  0.7130676122697998  0.8800954397028581  0.13289752072060068  1.0000
  H   H13       1.0  0.07904623698761298  0.3389037562029991  0.2861302349078727  1.0000
  H   H14       1.0  0.9598833677385565  0.6448794072387121  0.17188101085533702  1.0000
  H   H15       1.0  0.8848342753183658  0.837220429753321  0.7555967526815284  1.0000
  H   H16       1.0  0.9759759535291229  0.670416953316743  0.6370288914210325  1.0000
  H   H17       1.0  0.13746463727867927  0.4260715472698125  0.5657186094635605  1.0000
  H   H18       1.0  0.8841743640109191  0.8765336178398743  0.15119329191283204  1.0000
  H   H19       1.0  0.8513555050062238  0.9556929340772395  0.9780032819163669  1.0000
  H   H20       1.0  0.7432739807860205  0.7580941087059812  0.9577459667617947  1.0000
  H   H21       1.0  0.7752440552087485  0.6786151562987268  0.1332336848020812  1.0000
  H   H22       1.0  0.6529171161689022  0.8323266678473151  0.13713233730649677  1.0000
  H   H23       1.0  0.732953629428718  0.8870936685578646  0.2400792244228269  1.0000
  Zn  Zn1       1.0  0.9273636959968519  0.5577142090833338  0.4121318016275961  1.0000
  Zn  Zn2       1.0  0.11303338100591964  0.5556426680009645  0.41275148806722606  1.0000
  C   C29       1.0  0.02134855759013443  0.552668156679146  0.6757049474732069  1.0000
  C   C30       1.0  0.019050559070529435  0.5606905185815985  0.14917848921092403  1.0000
  C   C31       1.0  0.02183911209564314  0.8200685516708044  0.4065171122058757  1.0000
  C   C32       1.0  0.018559930590607895  0.2932883919178415  0.4183664023044431  1.0000
  O   O2        1.0  0.08976356129074342  0.5621808603555332  0.20311503239932205  1.0000
  O   O3        1.0  0.09155454143693426  0.549604472332551  0.6222383177760118  1.0000
  O   O4        1.0  0.09194972730222556  0.7655336935048143  0.40486723204824204  1.0000
  O   O5        1.0  0.08936831164810033  0.34625164949555143  0.4204860098339862  1.0000
  O   O6        1.0  0.9510287019946957  0.7671052282971815  0.40439727964178473  1.0000
  O   O7        1.0  0.9506335267438413  0.5511777395054522  0.6217682873243153  1.0000
  O   O8        1.0  0.9488425385406464  0.5637540658428939  0.20264326900915242  1.0000
  O   O9        1.0  0.9484472893153798  0.3478248453790662  0.4200143545178716  1.0000
