data_image0
_chemical_formula_structural       NC5NC3BrH3C6BrH5C9H10Zn2C4O8
_chemical_formula_sum              "N2 C27 Br2 H18 Zn2 O8"
_cell_length_a       13.839083392302014
_cell_length_b       9.276564384272257
_cell_length_c       10.29718717394978
_cell_angle_alpha    85.51933545767109
_cell_angle_beta     89.97508670927832
_cell_angle_gamma    90.61189963838827

_space_group_name_H-M_alt    "P 1"
_space_group_IT_number       1

loop_
  _space_group_symop_operation_xyz
  'x, y, z'

loop_
  _atom_site_type_symbol
  _atom_site_label
  _atom_site_symmetry_multiplicity
  _atom_site_fract_x
  _atom_site_fract_y
  _atom_site_fract_z
  _atom_site_occupancy
  N   N1        1.0  0.9212030640464979  0.5786582684823222  0.565950569052399  1.0000
  C   C1        1.0  0.8487633355703316  0.5150113263481599  0.5682198278957309  1.0000
  C   C2        1.0  0.7585100302108266  0.4358125244343718  0.571043428371623  1.0000
  C   C3        1.0  0.6714769338624379  0.5120189677620841  0.5683266866533931  1.0000
  C   C4        1.0  0.5829169764058039  0.43728537177146554  0.5709908676547988  1.0000
  C   C5        1.0  0.49369760979035066  0.5158434099515024  0.5681901471827056  1.0000
  N   N2        1.0  0.42197684429643734  0.5789979139583341  0.5659384099142777  1.0000
  C   C6        1.0  0.58132214271394  0.2860338032482699  0.5763829395680751  1.0000
  C   C7        1.0  0.6679093602740647  0.20970608196982532  0.5791039225129606  1.0000
  C   C8        1.0  0.7566604404377235  0.2837254931350428  0.5764652201612364  1.0000
  Br  Br1       1.0  0.8733071444413415  0.1736258061796463  0.5803903201426776  1.0000
  H   H1        1.0  0.6726577045944758  0.6292261323738695  0.5641481075636863  1.0000
  H   H2        1.0  0.5132234002717584  0.2271762150177783  0.5784809532642134  1.0000
  H   H3        1.0  0.6659671043938081  0.09274814483604654  0.5832732766564235  1.0000
  C   C9        1.0  0.16868318681337666  0.15534518685413623  0.5662767440651084  1.0000
  C   C10       1.0  0.15633983802951934  0.23881988316830063  0.44755376653690404  1.0000
  C   C11       1.0  0.15298889108949562  0.17381267194563677  0.32993950573944386  1.0000
  C   C12       1.0  0.16196056964464534  0.02441144228975123  0.32881496923627784  1.0000
  C   C13       1.0  0.1726022307579791  0.9392420175558382  0.4457426915949122  1.0000
  C   C14       1.0  0.17450588968993364  0.002299849046525575  0.565623457297684  1.0000
  Br  Br2       1.0  0.1580869868445336  0.9360289906975064  0.16742763622705992  1.0000
  H   H4        1.0  0.14027738317289118  0.4179071767466211  0.7774610337868284  1.0000
  H   H5        1.0  0.15157202975552234  0.355472738448414  0.44533006187861535  1.0000
  H   H6        1.0  0.1443358735338236  0.24001467387613662  0.23945803547553912  1.0000
  H   H7        1.0  0.1770740400393669  0.8230046852468745  0.4429420005531105  1.0000
  H   H8        1.0  0.2277431051405041  0.7044309342310275  0.767934821417459  1.0000
  C   C15       1.0  0.1717219228944955  0.5787704907338136  0.18449700626152632  1.0000
  C   C16       1.0  0.07406971387928585  0.6183140936721649  0.1809869189766074  1.0000
  C   C17       1.0  0.024039607321994404  0.638573205130103  0.06257219421823357  1.0000
  C   C18       1.0  0.07369116212684058  0.6184668309182351  0.9457640850912236  1.0000
  C   C19       1.0  0.17146715893952647  0.5788746014543709  0.9474032417112568  1.0000
  C   C20       1.0  0.21984401615417615  0.5592835624318075  0.06715849384979067  1.0000
  C   C21       1.0  0.9184217028283225  0.6813421428566893  0.06820795416905012  1.0000
  C   C22       1.0  0.850373911816835  0.6232924748243271  0.9679824863334799  1.0000
  C   C23       1.0  0.8802013309758361  0.7824083268979428  0.9567595811117605  1.0000
  H   H9        1.0  0.2093531420194801  0.5635461612024368  0.5133869557362618  1.0000
  H   H10       1.0  0.03637068029063206  0.6335804553323565  0.27105419063244396  1.0000
  H   H11       1.0  0.0370382042887496  0.6333058699435063  0.8531464113413327  1.0000
  H   H12       1.0  0.2951845520135768  0.5287741245992323  0.06913925323920789  1.0000
  H   H13       1.0  0.35613469322328317  0.5040775726957554  0.7432840127553645  1.0000
  H   H14       1.0  0.8844745371981622  0.6950900221449534  0.16427544015219023  1.0000
  H   H15       1.0  0.8826504609928951  0.5582248790546269  0.8935069138332948  1.0000
  H   H16       1.0  0.7751390883109065  0.6037287290240902  0.0031179351262105013  1.0000
  H   H17       1.0  0.930596878985357  0.8139947306899813  0.875467635886721  1.0000
  H   H18       1.0  0.8223984617607144  0.8558412246370894  0.9853333185400937  1.0000
  Zn  Zn1       1.0  0.06571553358121096  0.5787524174066798  0.5659545702801577  1.0000
  Zn  Zn2       1.0  0.27746428208161666  0.5788919464564617  0.5659450780605213  1.0000
  C   C24       1.0  0.17147365376027435  0.5731098979139448  0.8032020556466682  1.0000
  C   C25       1.0  0.17170848665902105  0.5845362870600246  0.32869771868154346  1.0000
  C   C26       1.0  0.17340202635476376  0.8422067022795483  0.5605706634299392  1.0000
  C   C27       1.0  0.16978002987493745  0.315437750051905  0.5713291814917599  1.0000
  O   O1        1.0  0.25206148060115696  0.5865180001251509  0.3770891976640558  1.0000
  O   O2        1.0  0.25183305304305037  0.5712329962063805  0.7548029991996018  1.0000
  O   O3        1.0  0.25338915459147593  0.7885320683956529  0.5588764322192785  1.0000
  O   O4        1.0  0.2505053069006753  0.3692189381911053  0.5730156672434943  1.0000
  O   O5        1.0  0.0926744365027099  0.7884254256259908  0.5588839810935904  1.0000
  O   O6        1.0  0.0911183468844372  0.5711280860331893  0.7548104774768318  1.0000
  O   O7        1.0  0.09134677468287089  0.5864130394854237  0.37709511423461933  1.0000
  O   O8        1.0  0.08979060087500335  0.3691139672501058  0.573021681211348  1.0000
