data_image0
_chemical_formula_structural       NC9NC3SH6C7NC2NH8C6NCOCH9Zn2C4O8
_chemical_formula_sum              "N5 C33 S1 H23 O9 Zn2"
_cell_length_a       16.77567553997237
_cell_length_b       9.273995741505848
_cell_length_c       10.300272075376752
_cell_angle_alpha    85.68415599440686
_cell_angle_beta     90.39584268328142
_cell_angle_gamma    91.47570659476311

_space_group_name_H-M_alt    "P 1"
_space_group_IT_number       1

loop_
  _space_group_symop_operation_xyz
  'x, y, z'

loop_
  _atom_site_type_symbol
  _atom_site_label
  _atom_site_symmetry_multiplicity
  _atom_site_fract_x
  _atom_site_fract_y
  _atom_site_fract_z
  _atom_site_occupancy
  N   N1        1.0  0.7597310034612449  0.5996507679838017  0.5782981144073267  1.0000
  C   C1        1.0  0.705291425780023  0.6544228651383197  0.6200299408989627  1.0000
  C   C2        1.0  0.6377310900633023  0.7223914165335186  0.6718159460413102  1.0000
  C   C3        1.0  0.640418410890992  0.8201971506945591  0.7671056301966458  1.0000
  C   C4        1.0  0.5650538742132895  0.8684700992321059  0.7987340491583251  1.0000
  C   C5        1.0  0.5027112699938301  0.8084668287252585  0.7279754833231952  1.0000
  C   C6        1.0  0.41638408029483326  0.8374117852793252  0.7388967034877839  1.0000
  C   C7        1.0  0.3590681259372109  0.749036639859412  0.6803964443865  1.0000
  C   C8        1.0  0.27757802487005717  0.7757490438249912  0.6902556474631425  1.0000
  C   C9        1.0  0.2195778612154657  0.6844105082938443  0.6303528834456111  1.0000
  N   N2        1.0  0.1729628269791693  0.6109874147532198  0.5821999108298772  1.0000
  C   C10       1.0  0.2525760179363887  0.8911848688422747  0.7584548401418343  1.0000
  C   C11       1.0  0.308801317072708  0.9797365273925527  0.816493938034248  1.0000
  C   C12       1.0  0.3901360416415535  0.9534274699846792  0.8069303045387058  1.0000
  S   S1        1.0  0.5426556768901947  0.6951159595397094  0.6265920016743927  1.0000
  H   H1        1.0  0.6950212161171342  0.8555691912726378  0.8129591744341731  1.0000
  H   H2        1.0  0.5572147330731249  0.9438603469302199  0.8723994507013115  1.0000
  H   H3        1.0  0.3773553909708947  0.6587602247901224  0.6277294181070485  1.0000
  H   H4        1.0  0.18971390444376296  0.9127940800900569  0.7665952350808308  1.0000
  H   H5        1.0  0.2893295650703007  0.06933385407127755  0.8688418422557314  1.0000
  H   H6        1.0  0.431981876748407  0.02520592867867411  0.8518628910771032  1.0000
  C   C13       1.0  0.9639660734667902  0.18176515221041975  0.5792778940067818  1.0000
  C   C14       1.0  0.977969684295731  0.26542882663476397  0.46196990093195334  1.0000
  C   C15       1.0  0.9991079894508768  0.20093578367925738  0.3496001272225562  1.0000
  C   C16       1.0  0.00712440206579412  0.05070902370707753  0.3513311987638243  1.0000
  C   C17       1.0  0.9914464723513908  0.9657222153624968  0.46754760966991316  1.0000
  C   C18       1.0  0.9687353252974501  0.028862110588561352  0.5812314138278687  1.0000
  C   C19       1.0  0.030499306952098015  0.984397395974973  0.23087542142116568  1.0000
  N   N3        1.0  0.03340758183339765  0.05880519990307386  0.11290111046980122  1.0000
  C   C20       1.0  0.05732717661444076  0.9616040151898549  0.03145323348883289  1.0000
  C   C21       1.0  0.06870243838531609  0.8309762442704559  0.10050026853383918  1.0000
  N   N4        1.0  0.051864682197722445  0.8454669037422821  0.22590150087316152  1.0000
  H   H7        1.0  0.8992974805521023  0.4445238837070884  0.7655654432225532  1.0000
  H   H8        1.0  0.9745003418869211  0.3821790692813117  0.4577487410383018  1.0000
  H   H9        1.0  0.010364372128465417  0.2694770288095032  0.2614893323063203  1.0000
  H   H10       1.0  0.9941464238944228  0.8492335210680032  0.46937274626251413  1.0000
  H   H11       1.0  0.9697719281105694  0.7307802376194629  0.7971960655184279  1.0000
  H   H12       1.0  0.0661522289723937  0.9849058919156369  0.9280003193057706  1.0000
  H   H13       1.0  0.08828699395319095  0.7324162202908264  0.06218839661359277  1.0000
  H   H14       1.0  0.05619584783330201  0.7650170236621746  0.3018510729200192  1.0000
  C   C22       1.0  0.9663580644912307  0.605460311251584  0.19890233507094424  1.0000
  C   C23       1.0  0.8849452162900647  0.6373414186279333  0.19477142489950383  1.0000
  C   C24       1.0  0.8441727479091548  0.6553615045556733  0.07528202884463008  1.0000
  C   C25       1.0  0.8849514243312885  0.6370127979546729  0.9596367837020287  1.0000
  C   C26       1.0  0.9663433570155618  0.6051669554823194  0.9616070301458643  1.0000
  C   C27       1.0  0.006687765501481646  0.590098258177766  0.08174176659820809  1.0000
  N   N5        1.0  0.7605274572829019  0.6857710320999469  0.0695842680444607  1.0000
  C   C28       1.0  0.7214508899789798  0.7744717520339355  0.156869520446967  1.0000
  O   O1        1.0  0.7614633396150977  0.8527010278654659  0.22968391608108774  1.0000
  C   C29       1.0  0.6326264810865009  0.7826418174258909  0.1549422910000788  1.0000
  H   H15       1.0  0.9970376051556541  0.5912555319958241  0.5280353247293792  1.0000
  H   H16       1.0  0.852896524547282  0.6453178641061782  0.2846319080729376  1.0000
  H   H17       1.0  0.8528665165771899  0.648944208971604  0.8679934478205515  1.0000
  H   H18       1.0  0.06948408878012424  0.5655485112926966  0.08411634865832163  1.0000
  H   H19       1.0  0.9969083491425612  0.5909808289639243  0.6350858885557966  1.0000
  H   H20       1.0  0.7270105537396869  0.6488875240706994  0.992229967383937  1.0000
  H   H21       1.0  0.6055427709290762  0.6741264486824803  0.1420679415088717  1.0000
  H   H22       1.0  0.6109961065027018  0.8205689762599897  0.2478699425763546  1.0000
  H   H23       1.0  0.6139027798637406  0.8592015030812985  0.07307671756539169  1.0000
  Zn  Zn1       1.0  0.8789807624778011  0.6029184255814293  0.5794315869386626  1.0000
  Zn  Zn2       1.0  0.05371299654627682  0.6077079868081201  0.5810770758147075  1.0000
  C   C30       1.0  0.9663119871427899  0.599476431282478  0.8174262173450941  1.0000
  C   C31       1.0  0.9663836901954911  0.611151853235453  0.34308259503480487  1.0000
  C   C32       1.0  0.9678298298978103  0.8687446738327007  0.5756871923841547  1.0000
  C   C33       1.0  0.9648657780588398  0.3418818761287651  0.58482168467353  1.0000
  O   O2        1.0  0.032702227192991984  0.6148733077850614  0.3920952473230929  1.0000
  O   O3        1.0  0.032611166655705626  0.5993890549302487  0.7696620767005988  1.0000
  O   O4        1.0  0.033835949959902356  0.8168265411296782  0.5744560987414797  1.0000
  O   O5        1.0  0.03147738432449154  0.3974358303065846  0.5873011273740796  1.0000
  O   O6        1.0  0.9012163150720593  0.8131905804500953  0.5732075348109391  1.0000
  O   O7        1.0  0.8999915415219663  0.595754827174261  0.7684134475239203  1.0000
  O   O8        1.0  0.9000826018594611  0.6112390303690016  0.39084505669821024  1.0000
  O   O9        1.0  0.8988577589277373  0.39380154253670246  0.586051034088978  1.0000
