data_image0
_chemical_formula_structural       NC5OC5NC4H8C7NH5C6SCH8Zn2C4O8
_chemical_formula_sum              "N3 C32 O9 H21 S1 Zn2"
_cell_length_a       19.189071930511275
_cell_length_b       9.275154477615127
_cell_length_c       10.302812801239593
_cell_angle_alpha    85.78691219350036
_cell_angle_beta     89.97791177301549
_cell_angle_gamma    89.42495848434854

_space_group_name_H-M_alt    "P 1"
_space_group_IT_number       1

loop_
  _space_group_symop_operation_xyz
  'x, y, z'

loop_
  _atom_site_type_symbol
  _atom_site_label
  _atom_site_symmetry_multiplicity
  _atom_site_fract_x
  _atom_site_fract_y
  _atom_site_fract_z
  _atom_site_occupancy
  N   N1        1.0  0.6486802145065867  0.5777197168011476  0.5731266166547722  1.0000
  C   C1        1.0  0.5939787084571616  0.6289193395799002  0.555023801978864  1.0000
  C   C2        1.0  0.5259370980521888  0.6926031384614576  0.5325066179104638  1.0000
  C   C3        1.0  0.5157273692687324  0.8002066274610676  0.4315053400822444  1.0000
  C   C4        1.0  0.4496319123512245  0.8621483842567875  0.40975863678474306  1.0000
  C   C5        1.0  0.3930879596937704  0.8163717079486295  0.4876579365414837  1.0000
  O   O1        1.0  0.3278022640039404  0.8823451990700258  0.46366144165098233  1.0000
  C   C6        1.0  0.2631479288594576  0.8161612694236874  0.48709314938218307  1.0000
  C   C7        1.0  0.20597387310212417  0.9022994979568679  0.5176514675186155  1.0000
  C   C8        1.0  0.1404687166815138  0.8406746674732244  0.540249707354167  1.0000
  C   C9        1.0  0.1314826058973983  0.6921097352448773  0.5311811270996571  1.0000
  C   C10       1.0  0.0640482651188344  0.6286474877165558  0.5542934000301543  1.0000
  N   N2        1.0  0.009835035026864797  0.5776260480603408  0.5728750756329581  1.0000
  C   C11       1.0  0.18818505937386443  0.6056292635198456  0.4987047824984865  1.0000
  C   C12       1.0  0.253681146604516  0.6672978805740933  0.47615032126626455  1.0000
  C   C13       1.0  0.403775066106351  0.7097703102896689  0.5902806838614718  1.0000
  C   C14       1.0  0.46986163159945293  0.6478239967188668  0.6120887301915243  1.0000
  H   H1        1.0  0.5588035125386493  0.8363013333954487  0.36976204019118786  1.0000
  H   H2        1.0  0.4421989751546286  0.9454546903589349  0.33161089632420104  1.0000
  H   H3        1.0  0.2124595995844759  0.017286967092996704  0.5246365506791613  1.0000
  H   H4        1.0  0.09689461545292921  0.9088042101127629  0.5645896741616239  1.0000
  H   H5        1.0  0.1816920029625421  0.4908118263554921  0.4901459347400992  1.0000
  H   H6        1.0  0.2965450389457848  0.599400038900844  0.4483984968130392  1.0000
  H   H7        1.0  0.36139632680095224  0.6760928620137503  0.6544851055318643  1.0000
  H   H8        1.0  0.477295558415592  0.5656809853307276  0.6913317768131593  1.0000
  C   C15       1.0  0.8312775683349897  0.15428308306053728  0.5714970953428908  1.0000
  C   C16       1.0  0.8121491631866236  0.23746712658209998  0.4570421846624828  1.0000
  C   C17       1.0  0.7873524178211012  0.171435129864832  0.34865477514612  1.0000
  C   C18       1.0  0.7812757879045102  0.02131618036045446  0.3534458605151163  1.0000
  C   C19       1.0  0.8010500787237808  0.9369242943662947  0.46529110908074434  1.0000
  C   C20       1.0  0.8272444274302295  0.001051646690868098  0.5745158042976564  1.0000
  C   C21       1.0  0.7672968804749961  0.2582012260480826  0.23282086951977995  1.0000
  N   N3        1.0  0.751177791506423  0.32794525989701473  0.13972007968766986  1.0000
  H   H9        1.0  0.8447897495477419  0.2309506380817849  0.8901654903139079  1.0000
  H   H10       1.0  0.8149951561036199  0.3544257891016296  0.45318807718117404  1.0000
  H   H11       1.0  0.7618466069417935  0.9691946414000479  0.2701435876689853  1.0000
  H   H12       1.0  0.7973907196906126  0.8204576469613962  0.4651794032005158  1.0000
  H   H13       1.0  0.8392997934620916  0.7022782763392695  0.7880306025010184  1.0000
  C   C22       1.0  0.82926101684663  0.5776673614702776  0.1917579698433005  1.0000
  C   C23       1.0  0.8050744026854857  0.7214538095844973  0.18108962614721946  1.0000
  C   C24       1.0  0.7928612596538712  0.792784799847352  0.0588051769533251  1.0000
  C   C25       1.0  0.8050743405813742  0.7214536582524453  0.9459384559621871  1.0000
  C   C26       1.0  0.8292609716911225  0.5776673517657346  0.9542548734696861  1.0000
  C   C27       1.0  0.8412146777292506  0.5064641905221657  0.0777071102403335  1.0000
  S   S1        1.0  0.7621018980033707  0.9765999637687707  0.046669925774387444  1.0000
  C   C28       1.0  0.6706759869395558  0.9262499572899746  0.05006633214888124  1.0000
  H   H14       1.0  0.8383499750370197  0.5234627422148004  0.5230926690808406  1.0000
  H   H15       1.0  0.7954665260077232  0.7785661972720023  0.26741877287631644  1.0000
  H   H16       1.0  0.7954663874759537  0.7785659896184356  0.8520684592510036  1.0000
  H   H17       1.0  0.8598582938953253  0.3955457750694349  0.08502963242417438  1.0000
  H   H18       1.0  0.8383486810359156  0.5234619940208156  0.6300770818021397  1.0000
  H   H19       1.0  0.6586241887785997  0.8621135300888623  0.9661999642374806  1.0000
  H   H20       1.0  0.6586244803058486  0.8621149871051272  0.14243466125751003  1.0000
  H   H21       1.0  0.6379490724821381  0.025774247521897817  0.04350705991157566  1.0000
  Zn  Zn1       1.0  0.7529017214342999  0.5776888397473576  0.573061505313762  1.0000
  Zn  Zn2       1.0  0.9056136014447775  0.5776451746419345  0.5729507601043498  1.0000
  C   C29       1.0  0.8292867846929334  0.5719236109862493  0.8101061700909209  1.0000
  C   C30       1.0  0.829230197130442  0.5834122220960809  0.3359062280292582  1.0000
  C   C31       1.0  0.8280031871749229  0.8409943453124524  0.5687716373706131  1.0000
  C   C32       1.0  0.8305137507891104  0.31433975556122773  0.5772408238288635  1.0000
  O   O2        1.0  0.8871732463107229  0.5853173891044955  0.38424165063378335  1.0000
  O   O3        1.0  0.8872485241088185  0.5699842155005523  0.7616863168294901  1.0000
  O   O4        1.0  0.8862112216405967  0.7872622365561865  0.5668069800868789  1.0000
  O   O5        1.0  0.8882104966196048  0.3680393783776228  0.5791208901070402  1.0000
  O   O6        1.0  0.770304774146395  0.7872946360281399  0.5668913753420399  1.0000
  O   O7        1.0  0.7713420683608816  0.5700183471976257  0.7617706490363223  1.0000
  O   O8        1.0  0.7712667908485239  0.5853514705591243  0.38432442175395054  1.0000
  O   O9        1.0  0.7723040412036682  0.3680734495199603  0.5792037585275303  1.0000
