data_image0
_chemical_formula_structural       NC5NC3OH4C7NH5C6BrH4Zn2C4O8
_chemical_formula_sum              "N3 C25 O9 H13 Br1 Zn2"
_cell_length_a       13.84702359539666
_cell_length_b       9.275154477615127
_cell_length_c       9.27656775626242
_cell_angle_alpha    86.34818767424132
_cell_angle_beta     90.17190505705399
_cell_angle_gamma    89.43463511314383

_space_group_name_H-M_alt    "P 1"
_space_group_IT_number       1

loop_
  _space_group_symop_operation_xyz
  'x, y, z'

loop_
  _atom_site_type_symbol
  _atom_site_label
  _atom_site_symmetry_multiplicity
  _atom_site_fract_x
  _atom_site_fract_y
  _atom_site_fract_z
  _atom_site_occupancy
  N   N1        1.0  0.8955857977973564  0.5624280818808725  0.4164951685162439  1.0000
  C   C1        1.0  0.8236321103940425  0.5543776372674663  0.47949773778959726  1.0000
  C   C2        1.0  0.7340227640762311  0.5443531330662066  0.5579492113529791  1.0000
  C   C3        1.0  0.646209577440995  0.5540374336027183  0.4821594560561928  1.0000
  C   C4        1.0  0.5585745570488204  0.5444656489437704  0.5570682418119262  1.0000
  C   C5        1.0  0.4684876939053987  0.5544363962723855  0.4790375814818188  1.0000
  N   N2        1.0  0.396069503949635  0.5624521138689554  0.4163071515272745  1.0000
  C   C6        1.0  0.558748052257182  0.5251806687965568  0.7079919531151715  1.0000
  C   C7        1.0  0.64618121812637  0.515487314755545  0.7838496760780985  1.0000
  C   C8        1.0  0.7341331297630441  0.5249974280223324  0.709425131215583  1.0000
  O   O1        1.0  0.8212870590891362  0.5152875435001965  0.7854141386804447  1.0000
  H   H1        1.0  0.646079747734629  0.5689778948136488  0.36523675151157553  1.0000
  H   H2        1.0  0.49137150316558287  0.5176471615249976  0.7669486144146811  1.0000
  H   H3        1.0  0.6455319946878526  0.5005764944329786  0.900541181846413  1.0000
  H   H4        1.0  0.8231491897661161  0.5013323944490642  0.8946256917848443  1.0000
  C   C9        1.0  0.14862331353416347  0.13903460496895725  0.4147326650233327  1.0000
  C   C10       1.0  0.12184684112787705  0.2209683275836427  0.2876957947362726  1.0000
  C   C11       1.0  0.08722948341782358  0.15375006465223717  0.16739173596698564  1.0000
  C   C12       1.0  0.07881980002861089  0.0036811611114528934  0.17270776686464373  1.0000
  C   C13       1.0  0.10648521040617129  0.9205114484069385  0.29684836951494664  1.0000
  C   C14       1.0  0.14304131547803844  0.9858346328009008  0.418082073692684  1.0000
  C   C15       1.0  0.05916496620301248  0.2392505433742369  0.03882410283266124  1.0000
  N   N3        1.0  0.03660887319994478  0.3079773451080594  0.9354886578739813  1.0000
  H   H5        1.0  0.16809603313311583  0.21917008774533817  0.7684220548574043  1.0000
  H   H6        1.0  0.12578174288823596  0.3378860507102848  0.28341888832059237  1.0000
  H   H7        1.0  0.051699609415854615  0.9506477810952996  0.08024673535373972  1.0000
  H   H8        1.0  0.10141385012342675  0.8040423671211543  0.2967234650874664  1.0000
  H   H9        1.0  0.16024847503536033  0.6893858505944672  0.6550624624156398  1.0000
  C   C16       1.0  0.1449378166595907  0.5582910449240983  0.9932645528099857  1.0000
  C   C17       1.0  0.05889116693052764  0.5929972956028735  0.06404492507640125  1.0000
  C   C18       1.0  0.9770576429898553  0.6395803941771474  0.985558833197373  1.0000
  C   C19       1.0  0.9797332345702027  0.6524007548391131  0.8351126605102014  1.0000
  C   C20       1.0  0.06389688543552152  0.6161368826687168  0.7625997767168169  1.0000
  C   C21       1.0  0.14672683889066085  0.5665782162973394  0.8395501609612555  1.0000
  Br  Br1       1.0  0.8677215465698948  0.7173165788059237  0.7281611427641552  1.0000
  H   H10       1.0  0.27865465364326725  0.4273368980541945  0.2835308338592988  1.0000
  H   H11       1.0  0.9117691201587682  0.6670673745509785  0.04200941536316982  1.0000
  H   H12       1.0  0.06369634532610438  0.6235019368028305  0.6455785018322229  1.0000
  H   H13       1.0  0.3057241000069433  0.5516974108647139  0.5600368371386089  1.0000
  Zn  Zn1       1.0  0.040014625631253235  0.5624312384561643  0.41644920425062026  1.0000
  Zn  Zn2       1.0  0.25164075468304326  0.5624372748342371  0.4163648288660089  1.0000
  C   C22       1.0  0.14642435715740176  0.5592677741501073  0.6795613258703652  1.0000
  C   C23       1.0  0.14523332241442044  0.5656025598285881  0.15325285494925445  1.0000
  C   C24       1.0  0.14407931856343478  0.8257151542999139  0.4117068877012884  1.0000
  C   C25       1.0  0.14757830037661201  0.2991534481410838  0.42110736311816876  1.0000
  O   O2        1.0  0.22564355138610992  0.5680523715447372  0.20691434575969225  1.0000
  O   O3        1.0  0.22663346973394008  0.5568214521303854  0.6258353769971841  1.0000
  O   O4        1.0  0.2247387419486786  0.7719810959293524  0.4095410294225301  1.0000
  O   O5        1.0  0.22753820666132762  0.35289273699998014  0.42320858536316974  1.0000
  O   O6        1.0  0.06411710143533034  0.771975776289856  0.40960544777467933  1.0000
  O   O7        1.0  0.0660118176347293  0.5568178640280217  0.6258997253707161  1.0000
  O   O8        1.0  0.06502189602009034  0.5680487162334711  0.20697696150315315  1.0000
  O   O9        1.0  0.0669165515877137  0.35288907243393974  0.42327130909902744  1.0000
