data_image0
_chemical_formula_structural       NC8ONCOC5NC2H9C7ClCClC6H10C7F2C6H10Zn2C4O8
_chemical_formula_sum              "N3 C47 O10 H29 Cl2 F2 Zn2"
_cell_length_a       21.53969851371524
_cell_length_b       17.254896191010545
_cell_length_c       14.809232752179767
_cell_angle_alpha    84.80367508543087
_cell_angle_beta     89.67695930203556
_cell_angle_gamma    90.5122685228314

_space_group_name_H-M_alt    "P 1"
_space_group_IT_number       1

loop_
  _space_group_symop_operation_xyz
  'x, y, z'

loop_
  _atom_site_type_symbol
  _atom_site_label
  _atom_site_symmetry_multiplicity
  _atom_site_fract_x
  _atom_site_fract_y
  _atom_site_fract_z
  _atom_site_occupancy
  N   N1        1.0  0.5895768956979118  0.8511032818591395  0.985761762098055  1.0000
  C   C1        1.0  0.5423599301565875  0.8784331384019464  0.0017927277289724337  1.0000
  C   C2        1.0  0.4836263220192842  0.9124285204180427  0.021733457499911957  1.0000
  C   C3        1.0  0.43331349213740267  0.9059346376283449  0.9634522951367666  1.0000
  C   C4        1.0  0.3762276383712401  0.9389463850823561  0.9826962850256622  1.0000
  C   C5        1.0  0.36866707837977797  0.9786707238914719  0.06090422359108316  1.0000
  C   C6        1.0  0.4197364669241074  0.9854899565525248  0.11859289114487745  1.0000
  C   C7        1.0  0.4767494396806087  0.9523798017635257  0.09923165576028559  1.0000
  C   C8        1.0  0.3084884338435701  0.014319855669532758  0.0819493117065323  1.0000
  O   O1        1.0  0.3076631182633666  0.06928893677634584  0.13261674158129289  1.0000
  N   N2        1.0  0.2511696338827191  0.9857274445632611  0.0475590452753607  1.0000
  C   C9        1.0  0.19423286737639317  0.028695131267084673  0.04682483497298329  1.0000
  O   O2        1.0  0.1957360617682932  0.1006972427026065  0.055874005248247816  1.0000
  C   C10       1.0  0.13365790431177252  0.9901090407368562  0.03295595035205545  1.0000
  C   C11       1.0  0.1254550965981105  0.9095260621784866  0.05458143694816197  1.0000
  C   C12       1.0  0.0680030528938896  0.8739621063994124  0.04157330168972806  1.0000
  C   C13       1.0  0.0179619131204954  0.9183645322077011  0.007229760131973072  1.0000
  C   C14       1.0  0.9588508440595755  0.8816561260981801  0.9939174949291281  1.0000
  N   N3        1.0  0.9113303996490126  0.8521453659783773  0.9832154570278249  1.0000
  C   C15       1.0  0.025480473578052595  0.998613904257736  0.9862639215053297  1.0000
  C   C16       1.0  0.0828609010043492  0.03432498295744102  0.9992701607643122  1.0000
  H   H1        1.0  0.4382739882966108  0.8756609577534898  0.9028696172380597  1.0000
  H   H2        1.0  0.3385852579327066  0.9343844669122927  0.9353575433852639  1.0000
  H   H3        1.0  0.4154620189506703  0.015913084008587708  0.1791292759379759  1.0000
  H   H4        1.0  0.5154376746863261  0.9579442294905844  0.14471509122877435  1.0000
  H   H5        1.0  0.2508792835887531  0.9313366869617433  0.02197807890750869  1.0000
  H   H6        1.0  0.16288319796561462  0.8739429348386308  0.08303912090580212  1.0000
  H   H7        1.0  0.0625495527207715  0.8118770546455035  0.05871808375322183  1.0000
  H   H8        1.0  0.9870086948268237  0.033602237000608166  0.9598532641341796  1.0000
  H   H9        1.0  0.0876296606616655  0.09647938234279207  0.982274462472595  1.0000
  C   C17       1.0  0.7492015084455386  0.6237132256486242  0.9880755497552067  1.0000
  C   C18       1.0  0.7774192414924794  0.5808666039568244  0.061824703745297804  1.0000
  C   C19       1.0  0.7743653193153356  0.4995697234622188  0.0704836240105734  1.0000
  C   C20       1.0  0.7436379917903486  0.45968673423343637  0.005241475410191374  1.0000
  C   C21       1.0  0.7146735215875908  0.5022637084181579  0.9322304760982316  1.0000
  C   C22       1.0  0.7176769893702075  0.5835569327530521  0.9234771009358392  1.0000
  C   C23       1.0  0.7395799603401751  0.3738320697479317  0.016298842000217032  1.0000
  Cl  Cl1       1.0  0.7028488608005197  0.3318875673585095  0.11607480373495305  1.0000
  C   C24       1.0  0.7613656682327558  0.32940921540486573  0.9527634206586941  1.0000
  Cl  Cl2       1.0  0.798096813934749  0.37135366555075117  0.8529873904448093  1.0000
  C   C25       1.0  0.7573068484682186  0.24355467279717177  0.9638199800969036  1.0000
  C   C26       1.0  0.7862714103591131  0.2009773300954737  0.036828399019474864  1.0000
  C   C27       1.0  0.783262440770691  0.11968733738695829  0.04556616536984215  1.0000
  C   C28       1.0  0.7517117013983634  0.07952947337593849  0.980909509272025  1.0000
  C   C29       1.0  0.7235178372911999  0.1223723557715173  0.9072210620621671  1.0000
  C   C30       1.0  0.7265778984704792  0.20367206219380302  0.8985766931183101  1.0000
  H   H10       1.0  0.7260009272035464  0.8106061961111468  0.8982403822836496  1.0000
  H   H11       1.0  0.801806711758374  0.6101252594182184  0.11293066175268451  1.0000
  H   H12       1.0  0.7963626327884641  0.4676739454639298  0.1278439646576004  1.0000
  H   H13       1.0  0.6894202513056898  0.47251545553749075  0.8823491876839118  1.0000
  H   H14       1.0  0.6950975103988221  0.6148852716205732  0.8662948242010078  1.0000
  H   H15       1.0  0.8115259487275088  0.2307199859663593  0.08671297096805364  1.0000
  H   H16       1.0  0.8058368639762765  0.088325652230905  0.10274144979649802  1.0000
  H   H17       1.0  0.6991268432339318  0.09314752231466131  0.8561018162608933  1.0000
  H   H18       1.0  0.7045813108572844  0.2355733863327963  0.8412194293522395  1.0000
  H   H19       1.0  0.7145646030753541  0.895346071585183  0.9308358602689208  1.0000
  C   C31       1.0  0.7505347409658479  0.8515761948907847  0.7192613822482157  1.0000
  C   C32       1.0  0.7929325921893531  0.7995286189370414  0.6858344483667846  1.0000
  C   C33       1.0  0.7762057876773051  0.7548446728170317  0.6155142116386558  1.0000
  C   C34       1.0  0.7165096948123473  0.7605772566458215  0.5778230348323665  1.0000
  C   C35       1.0  0.6745006502365958  0.8135749404641872  0.6102545095022476  1.0000
  C   C36       1.0  0.6912135796266415  0.8582686400512576  0.6805769430506101  1.0000
  C   C37       1.0  0.6992515109501823  0.7144754637208983  0.4993847722550191  1.0000
  F   F1        1.0  0.729720227790079  0.6437348224948981  0.506544582906366  1.0000
  F   F2        1.0  0.6361307516314327  0.6977617423551905  0.5017212374469886  1.0000
  C   C38       1.0  0.7164349396513872  0.7606206114342341  0.4109299510338504  1.0000
  C   C39       1.0  0.6743871256871566  0.8136218081452227  0.3681054824457046  1.0000
  C   C40       1.0  0.6910421423244915  0.8583468777138787  0.2880762300288229  1.0000
  C   C41       1.0  0.7503784731207706  0.8516665216037033  0.24972372082047323  1.0000
  C   C42       1.0  0.7927741594313346  0.7996414340898781  0.29333158224345923  1.0000
  C   C43       1.0  0.7761039496068624  0.7549228172433884  0.3733629560964806  1.0000
  H   H20       1.0  0.7372918255610524  0.9833744390825297  0.877031307934244  1.0000
  H   H21       1.0  0.8391809423027057  0.7935189284018546  0.7137410703727531  1.0000
  H   H22       1.0  0.8100615801043839  0.7159391744864003  0.5903443839146802  1.0000
  H   H23       1.0  0.6287303860202247  0.8206463275865132  0.5809619509414587  1.0000
  H   H24       1.0  0.657689861038408  0.8983014769360774  0.7043295728907613  1.0000
  H   H25       1.0  0.6286372563743152  0.8206704377280152  0.39673420323795394  1.0000
  H   H26       1.0  0.6575028004148739  0.8983957143151324  0.25647262851905817  1.0000
  H   H27       1.0  0.8390024095987064  0.793635874319346  0.265884521355773  1.0000
  H   H28       1.0  0.8099868773163698  0.7160129309118946  0.40611323341590255  1.0000
  H   H29       1.0  0.8398911810397528  0.9241462166732536  0.06977168885790164  1.0000
  Zn  Zn1       1.0  0.6824279951651093  0.8514019330909203  0.9850322035041332  1.0000
  Zn  Zn2       1.0  0.8184792564806614  0.8518403831654127  0.9839525193419785  1.0000
  C   C44       1.0  0.7503895852663462  0.8485575783851834  0.14950358450895462  1.0000
  C   C45       1.0  0.7505191574216414  0.8546857219348576  0.8194811998010758  1.0000
  C   C46       1.0  0.751235076685157  0.9933698846471166  0.9786649062301832  1.0000
  C   C47       1.0  0.749673614428812  0.7098724830740358  0.9903199412611763  1.0000
  O   O3        1.0  0.8021446534277124  0.8558923112129282  0.8527062048094622  1.0000
  O   O4        1.0  0.8020238454391583  0.8476831770292038  0.11545887340920269  1.0000
  O   O5        1.0  0.802705894168722  0.9646209436541797  0.977505424823679  1.0000
  O   O6        1.0  0.8014625583235957  0.7389545499787682  0.9906595859548322  1.0000
  O   O7        1.0  0.6994446468945629  0.9642877661287872  0.9783251372549588  1.0000
  O   O8        1.0  0.6987626033114056  0.8473509319539226  0.11627852302283304  1.0000
  O   O9        1.0  0.69888341151224  0.855560038907324  0.853524768938487  1.0000
  O   O10       1.0  0.6982013163550641  0.7386222721335707  0.9914782178876902  1.0000
