data_image0
_chemical_formula_structural       NC9NC3OH6C6SCH8C6BrH3Zn2C4O8
_chemical_formula_sum              "N2 C29 O9 H17 S1 Br1 Zn2"
_cell_length_a       15.78231758774541
_cell_length_b       10.302809429070853
_cell_length_c       10.302972455390005
_cell_angle_alpha    85.56069891033052
_cell_angle_beta     90.08385913268748
_cell_angle_gamma    89.63144148246117

_space_group_name_H-M_alt    "P 1"
_space_group_IT_number       1

loop_
  _space_group_symop_operation_xyz
  'x, y, z'

loop_
  _atom_site_type_symbol
  _atom_site_label
  _atom_site_symmetry_multiplicity
  _atom_site_fract_x
  _atom_site_fract_y
  _atom_site_fract_z
  _atom_site_occupancy
  N   N1        1.0  0.7978581108757937  0.41284340256018703  0.5703922733186176  1.0000
  C   C1        1.0  0.7493270457188153  0.3308047398228089  0.5944638905608419  1.0000
  C   C2        1.0  0.6890739251558132  0.22897481806633  0.6243429689414326  1.0000
  C   C3        1.0  0.7087380296798371  0.1010600267106261  0.661796523067808  1.0000
  C   C4        1.0  0.6320081851817871  0.039067511479410795  0.6800225078607218  1.0000
  C   C5        1.0  0.5702264096402834  0.13373909680142382  0.6523438577929487  1.0000
  C   C6        1.0  0.47713563608802706  0.1162357676020711  0.65755295283213  1.0000
  C   C7        1.0  0.42338926113231273  0.22355787584309164  0.626010756804177  1.0000
  C   C8        1.0  0.3351829458483366  0.20920556553206082  0.6302892481655915  1.0000
  C   C9        1.0  0.2807400364406865  0.3196502661851899  0.5978210718983772  1.0000
  N   N2        1.0  0.2369808322082524  0.40843355620609234  0.5717195600313438  1.0000
  C   C10       1.0  0.3000417201956645  0.08737141307788732  0.6661589129032037  1.0000
  C   C11       1.0  0.35285716005389206  0.9802711902791267  0.697640251972437  1.0000
  C   C12       1.0  0.44087781776871304  0.9942292196039852  0.6934780261602916  1.0000
  O   O1        1.0  0.6066835013239679  0.2459372314705779  0.6194436330014731  1.0000
  H   H1        1.0  0.7711989479191029  0.057922570184281146  0.6743763723946374  1.0000
  H   H2        1.0  0.6232772485260195  0.9371355550177941  0.7098834820982429  1.0000
  H   H3        1.0  0.44999360339138955  0.3183664494211704  0.5980930774026467  1.0000
  H   H4        1.0  0.2319255737181754  0.07521575208308653  0.6697804508745406  1.0000
  H   H5        1.0  0.3255224943958518  0.8861107773134519  0.7253674950833915  1.0000
  H   H6        1.0  0.47996525729726147  0.9093983007909828  0.718421710878081  1.0000
  C   C13       1.0  0.017423533340232826  0.02938502863116098  0.5710615607970121  1.0000
  C   C14       1.0  0.06630353486168605  0.03655821275070914  0.4569748347887521  1.0000
  C   C15       1.0  0.09039209292142614  0.9231506636625425  0.4000611426885514  1.0000
  C   C16       1.0  0.06630342802242101  0.8014070559030291  0.4569747646947076  1.0000
  C   C17       1.0  0.017423499567500885  0.7918818903394004  0.5710615538795047  1.0000
  C   C18       1.0  0.9932004320727413  0.9065018576410763  0.6275227216932934  1.0000
  S   S1        1.0  0.1529998348408964  0.9338045086652197  0.2544506510126765  1.0000
  C   C19       1.0  0.06117887200356459  0.9430245621749445  0.14703246659434033  1.0000
  H   H7        1.0  0.9989751590724574  0.35399740051396783  0.6140273289992373  1.0000
  H   H8        1.0  0.08571814589050208  0.12997422735407715  0.41165781893460296  1.0000
  H   H9        1.0  0.0857179589086461  0.7146238357438051  0.4116577172014875  1.0000
  H   H10       1.0  0.9554832869291678  0.9000629719478336  0.7155095116346528  1.0000
  H   H11       1.0  0.9989737750221883  0.460981646434682  0.61402589720849  1.0000
  H   H12       1.0  0.022295173923908316  0.8539598809379441  0.16422664263073816  1.0000
  H   H13       1.0  0.022295967441243514  0.030194834634850853  0.1642261730970802  1.0000
  H   H14       1.0  0.08305743705427338  0.9507462863564684  0.044482699817609106  1.0000
  C   C20       1.0  0.017423487398364745  0.410633443681343  0.18981898256734242  1.0000
  C   C21       1.0  0.042127482864977556  0.2790261634833029  0.19884471848740737  1.0000
  C   C22       1.0  0.05438204474274608  0.21374184635435703  0.08638413574142545  1.0000
  C   C23       1.0  0.04212762567624285  0.2790261113757102  0.9637623283177407  1.0000
  C   C24       1.0  0.01742352748776142  0.41063344683170766  0.9523040647630099  1.0000
  C   C25       1.0  0.005190782482519917  0.4758015240546758  0.06598999133130823  1.0000
  Br  Br1       1.0  0.08798356063231044  0.03473319938234876  0.10031508384827892  1.0000
  H   H15       1.0  0.05196156501410254  0.22663571482052758  0.2929211715238964  1.0000
  H   H16       1.0  0.05196189982612707  0.226635754951374  0.8778402699065389  1.0000
  H   H17       1.0  0.9861380701987154  0.5773021056434726  0.05809094085827171  1.0000
  Zn  Zn1       1.0  0.9245794390350703  0.41156734823430896  0.5707827905768026  1.0000
  Zn  Zn2       1.0  0.11025947555761868  0.40969901427193656  0.5713396555753972  1.0000
  C   C26       1.0  0.01742163888600222  0.4054613655815296  0.8081780682281297  1.0000
  C   C27       1.0  0.017419303326837277  0.41580661464588375  0.33394451142911863  1.0000
  C   C28       1.0  0.01741913986257536  0.6477537853282245  0.5658880468397385  1.0000
  C   C29       1.0  0.01742173899073074  0.17351263570669384  0.5762346018432891  1.0000
  O   O2        1.0  0.08788250529516528  0.41682809105176905  0.3825256828833375  1.0000
  O   O3        1.0  0.0878852882947241  0.40302088750271503  0.7600191707007702  1.0000
  O   O4        1.0  0.08788232040519972  0.5986750902120372  0.5643682613386148  1.0000
  O   O5        1.0  0.08788540982466397  0.22117389826738856  0.5781764947130688  1.0000
  O   O6        1.0  0.946953441404542  0.6000924648778412  0.5639459512422713  1.0000
  O   O7        1.0  0.9469564092901165  0.40443982199999806  0.759596791381788  1.0000
  O   O8        1.0  0.9469536263468059  0.41824698030618856  0.38210174268119923  1.0000
  O   O9        1.0  0.946956530872847  0.22259277823585058  0.5777526518464955  1.0000
