data_image0
_chemical_formula_structural       NC9NC3SH6C6SCNH4C6NO2H3Zn2C4O8
_chemical_formula_sum              "N4 C29 S2 H13 O10 Zn2"
_cell_length_a       16.77567553997237
_cell_length_b       10.302215558581764
_cell_length_c       9.273395971720356
_cell_angle_alpha    84.96984654489938
_cell_angle_beta     90.29524247886945
_cell_angle_gamma    90.91242892959859

_space_group_name_H-M_alt    "P 1"
_space_group_IT_number       1

loop_
  _space_group_symop_operation_xyz
  'x, y, z'

loop_
  _atom_site_type_symbol
  _atom_site_label
  _atom_site_symmetry_multiplicity
  _atom_site_fract_x
  _atom_site_fract_y
  _atom_site_fract_z
  _atom_site_occupancy
  N   N1        1.0  0.7526979515468235  0.45442596705503285  0.41563792112730946  1.0000
  C   C1        1.0  0.6979113640246752  0.5033085881956338  0.46189483187858443  1.0000
  C   C2        1.0  0.6299204125454079  0.5639686936177906  0.5192961191288097  1.0000
  C   C3        1.0  0.6319636865175959  0.6510470234596304  0.6249851693284052  1.0000
  C   C4        1.0  0.5562993666277717  0.6941815784723732  0.6600265488355086  1.0000
  C   C5        1.0  0.4943663279751919  0.6408842492351136  0.5815148342244474  1.0000
  C   C6        1.0  0.407868833186421  0.6668297517147831  0.5935844261559543  1.0000
  C   C7        1.0  0.3511024046176023  0.5878677150302143  0.52876928420815  1.0000
  C   C8        1.0  0.2694553922645959  0.6118142435066434  0.5396637593224528  1.0000
  C   C9        1.0  0.2120225243123429  0.5301987857330372  0.47329678937698766  1.0000
  N   N2        1.0  0.1658635142141231  0.46459165067737535  0.4199475511688755  1.0000
  C   C10       1.0  0.2437452416952056  0.7150379521163347  0.6151943580892738  1.0000
  C   C11       1.0  0.29942059639788743  0.7941635632648694  0.6794964161876457  1.0000
  C   C12       1.0  0.3809096906399919  0.7705771298691847  0.6689295221663321  1.0000
  S   S1        1.0  0.5350465138796414  0.5398739838235456  0.46908973529079206  1.0000
  H   H1        1.0  0.6863201877214544  0.6824238974574435  0.6758715872367742  1.0000
  H   H2        1.0  0.5479635316836221  0.761300792578963  0.7417319073065434  1.0000
  H   H3        1.0  0.3699426876258026  0.5071349918499688  0.4704433320090966  1.0000
  H   H4        1.0  0.1807560000965722  0.7344080158496615  0.6241906352687794  1.0000
  H   H5        1.0  0.2793998958896096  0.8742882072638334  0.7374692815630193  1.0000
  H   H6        1.0  0.4223122320577102  0.8347364256530062  0.7187028458356244  1.0000
  C   C13       1.0  0.9592054039926116  0.07823512786903343  0.41775222266101036  1.0000
  C   C14       1.0  0.03905659665844686  0.07570273563136733  0.4640108755795693  1.0000
  C   C15       1.0  0.07879349380142475  0.9573975119608122  0.4874876846461433  1.0000
  C   C16       1.0  0.03926368457112229  0.8405314773494758  0.46413527325830417  1.0000
  C   C17       1.0  0.9593636485989782  0.8407725627621879  0.41784580934860394  1.0000
  C   C18       1.0  0.9197642717806103  0.9601502006909906  0.3949642826866788  1.0000
  S   S2        1.0  0.18081232299185168  0.9556916252339307  0.5459450980278301  1.0000
  C   C19       1.0  0.15431188631511183  0.9404740578944432  0.7306613317481927  1.0000
  N   N3        1.0  0.13691424670811903  0.9304974348405013  0.8517583693159128  1.0000
  H   H7        1.0  0.07069025322902743  0.1652865961710266  0.48225409731726754  1.0000
  H   H8        1.0  0.0710392911843345  0.7498362920951422  0.48246383728929354  1.0000
  H   H9        1.0  0.8581797521903729  0.9612534298450001  0.35930801049459693  1.0000
  H   H10       1.0  0.808786463644816  0.6340217313309678  0.33044725593277735  1.0000
  C   C20       1.0  0.959739048716861  0.46350366283810374  0.9938675435324756  1.0000
  C   C21       1.0  0.8886890266140527  0.4913901749898371  0.06371670440668309  1.0000
  C   C22       1.0  0.8174133035608219  0.5069944466280099  0.9865459077052637  1.0000
  C   C23       1.0  0.8151654951679185  0.495011098822552  0.8372263846561986  1.0000
  C   C24       1.0  0.8861733759524041  0.469348260436653  0.7659393745721212  1.0000
  C   C25       1.0  0.9588300087756468  0.4555040528802857  0.84173054847668  1.0000
  N   N4        1.0  0.7412627090144311  0.5101180490345224  0.7583200487755803  1.0000
  O   O1        1.0  0.6719860603882952  0.5363164633051452  0.8283753924736077  1.0000
  O   O2        1.0  0.7387215377016344  0.4993556355370837  0.6252967096732935  1.0000
  H   H11       1.0  0.13415745596122175  0.32234197857410507  0.11209128852675508  1.0000
  H   H12       1.0  0.7637640776521945  0.5272034381520045  0.04437187939028676  1.0000
  H   H13       1.0  0.07775332263836576  0.36429874085476005  0.5715103955374432  1.0000
  Zn  Zn1       1.0  0.8719286012722288  0.4573560185362587  0.4168899322938796  1.0000
  Zn  Zn2       1.0  0.04663284461473838  0.461650895632981  0.4187073940939887  1.0000
  C   C26       1.0  0.9589990006670679  0.45184372301103226  0.6814656136589816  1.0000
  C   C27       1.0  0.9595643531729152  0.4671648749318338  0.15413187446896348  1.0000
  C   C28       1.0  0.9593358222772204  0.6966909561120188  0.4120753619505635  1.0000
  C   C29       1.0  0.9592274715421256  0.22231607972601353  0.42352220233167137  1.0000
  O   O3        1.0  0.025805072446493774  0.4700178303041343  0.20860776454988406  1.0000
  O   O4        1.0  0.02535475995167747  0.4522495044213992  0.6283687193418572  1.0000
  O   O5        1.0  0.0256258523052555  0.6499667055319136  0.4108341759744869  1.0000
  O   O6        1.0  0.025533920596169102  0.2723006380372393  0.42614219905607653  1.0000
  O   O7        1.0  0.8930274656728224  0.6467062746678549  0.40945512670398787  1.0000
  O   O8        1.0  0.8927563737219057  0.44899063419802854  0.6269895932892648  1.0000
  O   O9        1.0  0.8932066881212066  0.4667589312133911  0.2072269028318922  1.0000
  O   O10       1.0  0.8929355361496528  0.26904172863873105  0.4247614455714595  1.0000
