data_image0
_chemical_formula_structural       NC5NC3F3CH3C7NH5C7F3H5Zn2C4O8
_chemical_formula_sum              "N3 C27 F6 H13 Zn2 O8"
_cell_length_a       13.85151926108384
_cell_length_b       9.275154477615127
_cell_length_c       10.299327507215198
_cell_angle_alpha    85.77882767837892
_cell_angle_beta     89.98119703014584
_cell_angle_gamma    89.43371178103573

_space_group_name_H-M_alt    "P 1"
_space_group_IT_number       1

loop_
  _space_group_symop_operation_xyz
  'x, y, z'

loop_
  _atom_site_type_symbol
  _atom_site_label
  _atom_site_symmetry_multiplicity
  _atom_site_fract_x
  _atom_site_fract_y
  _atom_site_fract_z
  _atom_site_occupancy
  N   N1        1.0  0.8989861918315485  0.5781069471832384  0.5730812480595864  1.0000
  C   C1        1.0  0.8267030868139951  0.5690206860078912  0.6293259017768429  1.0000
  C   C2        1.0  0.7367772215011886  0.5577161310073183  0.6993022973927272  1.0000
  C   C3        1.0  0.6492066753208516  0.5669456638983038  0.631293930280705  1.0000
  C   C4        1.0  0.5617252320886935  0.5577161178677981  0.6993022792747796  1.0000
  C   C5        1.0  0.47168383456725543  0.5690207021404532  0.6293259865812728  1.0000
  N   N2        1.0  0.3993080064459214  0.5781069092894794  0.5730813429282859  1.0000
  C   C6        1.0  0.5618116377194906  0.538259296513877  0.8354740328362735  1.0000
  C   C7        1.0  0.6494120896974155  0.5258405942914617  0.9046080574249047  1.0000
  C   C8        1.0  0.6494795171900842  0.5102448386244058  0.0514204763046504  1.0000
  F   F1        1.0  0.7308976990424889  0.4354419897194533  0.09764204731247461  1.0000
  F   F2        1.0  0.5690288845625197  0.4354419591140051  0.09764213666105004  1.0000
  F   F3        1.0  0.6485694631522323  0.6460173648494358  0.09850047150040651  1.0000
  C   C9        1.0  0.7368819651864366  0.5382592012819517  0.8354740501691493  1.0000
  H   H1        1.0  0.6491316325933417  0.582169984639874  0.5258655012821731  1.0000
  H   H2        1.0  0.49371003503673394  0.5330746181557555  0.8873951442172482  1.0000
  H   H3        1.0  0.805026789100266  0.5330745372829764  0.8873951069538524  1.0000
  C   C10       1.0  0.15194574720916232  0.15471787848609697  0.5715784134049051  1.0000
  C   C11       1.0  0.12547405916746923  0.2379145437952035  0.4570702700557727  1.0000
  C   C12       1.0  0.09114833591975557  0.17189276821404056  0.3486277928026251  1.0000
  C   C13       1.0  0.0827289893665939  0.02177150829793129  0.35341631357050396  1.0000
  C   C14       1.0  0.11009607774134733  0.9373675686790064  0.4653143351393736  1.0000
  C   C15       1.0  0.14635775271640594  0.0014849334225524034  0.5745953640015924  1.0000
  C   C16       1.0  0.06339258875520892  0.2586714577360849  0.2327395276240076  1.0000
  N   N3        1.0  0.04108466759092  0.328425613514052  0.13959504693263836  1.0000
  H   H4        1.0  0.1705877654392869  0.2313399926714186  0.8903673208748583  1.0000
  H   H5        1.0  0.12941765340103117  0.35487453569705535  0.45321680235132955  1.0000
  H   H6        1.0  0.05583310459794657  0.9696577286648529  0.27007145901865165  1.0000
  H   H7        1.0  0.10502665339799222  0.8208999902141404  0.46520004005524873  1.0000
  H   H8        1.0  0.16300697318295576  0.7026818945735868  0.7881930002904142  1.0000
  C   C17       1.0  0.14924381127519504  0.5781599559292214  0.19170549611454943  1.0000
  C   C18       1.0  0.242678902813658  0.6359700463847968  0.18664100264968542  1.0000
  C   C19       1.0  0.2890921218846061  0.6675801282739102  0.06679863597247127  1.0000
  C   C20       1.0  0.2424371532320555  0.6358171570870028  0.9514030002449054  1.0000
  C   C21       1.0  0.14905971420373648  0.5780428564455513  0.9544682551840967  1.0000
  C   C22       1.0  0.10285766458634109  0.5500838094553844  0.07509619670418854  1.0000
  C   C23       1.0  0.39075225292871263  0.724753373940515  0.06274001156386232  1.0000
  F   F4        1.0  0.40706007185796134  0.8089479834531923  0.1659311497300213  1.0000
  F   F5        1.0  0.4552798694793978  0.6098004400478885  0.07019941458452617  1.0000
  F   F6        1.0  0.4067949847665646  0.8089284219043558  0.9482876763417528  1.0000
  H   H9        1.0  0.9735916582502483  0.46665503371632294  0.4086602945774313  1.0000
  H   H10       1.0  0.2795680163975449  0.6562484912593675  0.2761097859621455  1.0000
  H   H11       1.0  0.2791604730704089  0.6559868524957287  0.8590948331713277  1.0000
  H   H12       1.0  0.03084198501491487  0.5055299158865785  0.07819471802453637  1.0000
  H   H13       1.0  0.1138063175047268  0.5534649287554356  0.6283491547208223  1.0000
  Zn  Zn1       1.0  0.04336828375445357  0.5781030860919432  0.5730887475013902  1.0000
  Zn  Zn2       1.0  0.2549259721174919  0.5780990088229161  0.5730843908111349  1.0000
  C   C24       1.0  0.14913023652298743  0.572321244204395  0.8102692857564759  1.0000
  C   C25       1.0  0.14916631751648965  0.5838826698129882  0.33590398646052244  1.0000
  C   C26       1.0  0.1474102785436003  0.8414287108623327  0.5688497233069469  1.0000
  C   C27       1.0  0.15088621472060984  0.3147734709253478  0.577323611980773  1.0000
  O   O1        1.0  0.22942539160388717  0.5857954275612682  0.38429664133845826  1.0000
  O   O2        1.0  0.2294385600594655  0.5704043042899933  0.7618729465179794  1.0000
  O   O3        1.0  0.22804858963254263  0.7877119867581941  0.5669249471200428  1.0000
  O   O4        1.0  0.23081528979594523  0.36848775542325196  0.5792445433967794  1.0000
  O   O5        1.0  0.06747889388173522  0.7877143394945688  0.5669285949104065  1.0000
  O   O6        1.0  0.06886885288966085  0.5704083892590328  0.7618765312322824  1.0000
  O   O7        1.0  0.06885568520677923  0.5857994625276937  0.38429866442206156  1.0000
  O   O8        1.0  0.07024558343943732  0.368491780062455  0.5792466638146595  1.0000
