data_image0
_chemical_formula_structural       NC5NC3F3CH3C9H8C6NH7Zn2C4O8
_chemical_formula_sum              "N3 C28 F3 H18 Zn2 O8"
_cell_length_a       13.85151926108384
_cell_length_b       9.275152443626249
_cell_length_c       9.274774538082514
_cell_angle_alpha    84.86265069898316
_cell_angle_beta     90.34967317275357
_cell_angle_gamma    90.57354708821606

_space_group_name_H-M_alt    "P 1"
_space_group_IT_number       1

loop_
  _space_group_symop_operation_xyz
  'x, y, z'

loop_
  _atom_site_type_symbol
  _atom_site_label
  _atom_site_symmetry_multiplicity
  _atom_site_fract_x
  _atom_site_fract_y
  _atom_site_fract_z
  _atom_site_occupancy
  N   N1        1.0  0.9132298938921021  0.5927006557299691  0.4025496000173874  1.0000
  C   C1        1.0  0.8410915428776653  0.5830730761009164  0.4651216805372469  1.0000
  C   C2        1.0  0.75134577296842  0.57109504353696  0.5429702999014214  1.0000
  C   C3        1.0  0.6635768360487899  0.580977990954795  0.46732415510529357  1.0000
  C   C4        1.0  0.5762937832956933  0.5710950305615534  0.542970279864528  1.0000
  C   C5        1.0  0.48607229124580414  0.5830730914363407  0.4651217746605243  1.0000
  N   N2        1.0  0.4135517084505963  0.5927006169087488  0.4025497057262166  1.0000
  C   C6        1.0  0.5767644372434426  0.55032926704295  0.6944422505118542  1.0000
  C   C7        1.0  0.6645261949399447  0.537244396167313  0.7713630164211145  1.0000
  C   C8        1.0  0.6650794424157012  0.5202408520903286  0.934631277499338  1.0000
  F   F1        1.0  0.7457213586497389  0.44495015145037425  0.9865526585242235  1.0000
  F   F2        1.0  0.5838525441847257  0.44495011997467704  0.9865527580444301  1.0000
  F   F3        1.0  0.6661967571851609  0.6556518215741493  0.9859431195678121  1.0000
  C   C9        1.0  0.7518347635261245  0.5503291715851821  0.6944422704809472  1.0000
  H   H1        1.0  0.6632064266555366  0.5972158379703052  0.350048629901081  1.0000
  H   H2        1.0  0.5088390464784411  0.5446469269654193  0.7521806147230596  1.0000
  H   H3        1.0  0.8201557992908403  0.5446468463957889  0.7521805739127662  1.0000
  C   C10       1.0  0.16055343261821453  0.16905553004465612  0.40402313044924143  1.0000
  C   C11       1.0  0.12523286642894105  0.25286240609618527  0.28140730853588125  1.0000
  C   C12       1.0  0.09887698542602075  0.18850852200251977  0.15649581361802387  1.0000
  C   C13       1.0  0.10742577128121258  0.039208099911324026  0.15172692989165104  1.0000
  C   C14       1.0  0.14085431350106403  0.9537220986129658  0.27330648907824107  1.0000
  C   C15       1.0  0.1662373792666397  0.01633459614218724  0.40108860876496766  1.0000
  C   C16       1.0  0.08074872467240879  0.9731847259740852  0.022373221092229167  1.0000
  C   C17       1.0  0.05841289186413381  0.9178723332002713  0.9140597711963308  1.0000
  C   C18       1.0  0.03131276403285989  0.8507485298116831  0.782640395785184  1.0000
  H   H4        1.0  0.3004363166212398  0.24819755828073298  0.692267926568837  1.0000
  H   H5        1.0  0.12014554550958745  0.3693838445717077  0.28095331283991554  1.0000
  H   H6        1.0  0.07268863945976967  0.25556207307791623  0.06302008177539986  1.0000
  H   H7        1.0  0.14490279736088904  0.8374471208779269  0.269280203467277  1.0000
  H   H8        1.0  0.2573339520690898  0.7193188379207118  0.5982383712261483  1.0000
  H   H9        1.0  0.049015854230589184  0.7339093143825207  0.7961239695853939  1.0000
  H   H10       1.0  0.9526571452465398  0.863503112976276  0.7628816544228838  1.0000
  H   H11       1.0  0.0717063717942317  0.9039103899558505  0.6892173735316578  1.0000
  C   C19       1.0  0.1616875800757367  0.5963848503928397  0.9787267936533062  1.0000
  C   C20       1.0  0.23066598971531585  0.6815186624444944  0.04516845391287493  1.0000
  C   C21       1.0  0.30389581132100485  0.7547687270484307  0.964149846751607  1.0000
  C   C22       1.0  0.3087385683322357  0.7432171950702287  0.8152124398562477  1.0000
  C   C23       1.0  0.2400912117625028  0.6612614075901626  0.7470572102112802  1.0000
  C   C24       1.0  0.16510321533170721  0.5890052023769555  0.8263849791929897  1.0000
  N   N3        1.0  0.37398117522036123  0.8397018343117757  0.033597447378307596  1.0000
  H   H12       1.0  0.015490103059055522  0.31437111855539346  0.10562382936230374  1.0000
  H   H13       1.0  0.22897409970574306  0.6883607815823121  0.16116488594352218  1.0000
  H   H14       1.0  0.3652720168719181  0.7989556086221845  0.7514886279290337  1.0000
  H   H15       1.0  0.2443692550381511  0.6572484927906882  0.6308980594730951  1.0000
  H   H16       1.0  0.06369857364746782  0.4034508968714799  0.5609458428682873  1.0000
  H   H17       1.0  0.3712384111817011  0.8487486733909262  0.1449360369671362  1.0000
  H   H18       1.0  0.4291135718762999  0.8943057702327111  0.9741662491564269  1.0000
  Zn  Zn1       1.0  0.05761196989020315  0.5926967207694449  0.4025579628062947  1.0000
  Zn  Zn2       1.0  0.26916958347650355  0.592692682377663  0.40255315149505777  1.0000
  C   C25       1.0  0.16441688431278867  0.5846529451057669  0.6661793383661259  1.0000
  C   C26       1.0  0.16236699203848137  0.6007382770305684  0.13893191123642024  1.0000
  C   C27       1.0  0.1651348418876733  0.8562308593246509  0.39589196938092397  1.0000
  C   C28       1.0  0.16164895095626894  0.3291586288753141  0.409219363173702  1.0000
  O   O1        1.0  0.2428799784921328  0.6021915004209281  0.19269640811971933  1.0000
  O   O2        1.0  0.24447122248603315  0.5831955719581652  0.6124107781096202  1.0000
  O   O3        1.0  0.24504990607439336  0.8024981592169174  0.3941518101554067  1.0000
  O   O4        1.0  0.24230122234666482  0.38288892442574674  0.4109552678238353  1.0000
  O   O5        1.0  0.08448025882579115  0.8025004787243757  0.394155846471562  1.0000
  O   O6        1.0  0.0839015865505084  0.5831996254050085  0.6124147314677413  1.0000
  O   O7        1.0  0.0823103352913979  0.6021955187018142  0.19269862641079438  1.0000
  O   O8        1.0  0.08173157950878744  0.38289293144607683  0.4109575943590529  1.0000
