data_image0
_chemical_formula_structural       NC5NC3OH4C7NH5C7F3H5Zn2C4O8
_chemical_formula_sum              "N3 C26 O9 H14 F3 Zn2"
_cell_length_a       13.84702359539666
_cell_length_b       9.275154477615127
_cell_length_c       10.299327507215196
_cell_angle_alpha    85.77882767837892
_cell_angle_beta     89.96690636176139
_cell_angle_gamma    89.43463511314383

_space_group_name_H-M_alt    "P 1"
_space_group_IT_number       1

loop_
  _space_group_symop_operation_xyz
  'x, y, z'

loop_
  _atom_site_type_symbol
  _atom_site_label
  _atom_site_symmetry_multiplicity
  _atom_site_fract_x
  _atom_site_fract_y
  _atom_site_fract_z
  _atom_site_occupancy
  N   N1        1.0  0.8992778573811729  0.5781534843713785  0.5727766050010112  1.0000
  C   C1        1.0  0.8271772747900036  0.569477376520285  0.6295612380657047  1.0000
  C   C2        1.0  0.7373850130120839  0.5586737897591061  0.7002700709127059  1.0000
  C   C3        1.0  0.6497485358423548  0.5691107399768831  0.6319602623727048  1.0000
  C   C4        1.0  0.5619388600308451  0.5587950543315515  0.699476047229119  1.0000
  C   C5        1.0  0.4720339311901016  0.5695407052259116  0.6291464961370663  1.0000
  N   N2        1.0  0.3997620019090803  0.578179383510586  0.5726071440432805  1.0000
  C   C6        1.0  0.5617604653531367  0.5380112874055316  0.835504588064218  1.0000
  C   C7        1.0  0.6490167632851365  0.5275646087128433  0.9038756563119827  1.0000
  C   C8        1.0  0.7371422012973969  0.5378138140871291  0.8367963209806192  1.0000
  O   O1        1.0  0.8241189565866959  0.5273493011587642  0.9052857168197096  1.0000
  H   H1        1.0  0.6498913201396195  0.5852123322135523  0.5265770541785944  1.0000
  H   H2        1.0  0.4942464544097939  0.5298922958272634  0.8886426174688065  1.0000
  H   H3        1.0  0.6480954649001738  0.5114949533435214  0.009050483517369031  1.0000
  H   H4        1.0  0.8257264523845864  0.5123095986569353  0.003718813136013745  1.0000
  C   C9        1.0  0.15231948252628968  0.15477751045425459  0.5711880489266399  1.0000
  C   C10       1.0  0.12583920605519427  0.2379728054220387  0.4566888761446688  1.0000
  C   C11       1.0  0.0915023462282667  0.17194925292521734  0.3482580309871115  1.0000
  C   C12       1.0  0.08308026811664249  0.021827557170695844  0.3530494048527446  1.0000
  C   C13       1.0  0.11045623542295813  0.9374250342446548  0.4649381524265489  1.0000
  C   C14       1.0  0.14672967507411294  0.0015442761209152305  0.5742068931494462  1.0000
  C   C15       1.0  0.06373759403636226  0.2587265056349508  0.23237917150992304  1.0000
  N   N3        1.0  0.04142243532810829  0.3284795066143975  0.13924225039332305  1.0000
  H   H5        1.0  0.17096754894107202  0.23140058966786836  0.8899706391010627  1.0000
  H   H6        1.0  0.12978407974175576  0.35493300146916945  0.45283407205862114  1.0000
  H   H7        1.0  0.05617565729292906  0.9697123852372006  0.2697136646173006  1.0000
  H   H8        1.0  0.10538516636419937  0.8209571933544517  0.46482557523859563  1.0000
  H   H9        1.0  0.16338429718540692  0.7027420991404768  0.787798887450113  1.0000
  C   C16       1.0  0.14961666998082768  0.5782194480281548  0.19131604725215756  1.0000
  C   C17       1.0  0.2430820754413232  0.6360343752726301  0.1862198910628563  1.0000
  C   C18       1.0  0.2895103527380518  0.6676468598023266  0.06636179615183324  1.0000
  C   C19       1.0  0.24284024742689803  0.6358814734603551  0.9509819705807279  1.0000
  C   C20       1.0  0.14943251318122863  0.5781023390144606  0.9540788687074183  1.0000
  C   C21       1.0  0.10321547384951059  0.5501409003151722  0.07472246690147875  1.0000
  C   C22       1.0  0.3912034662220063  0.7248253680376868  0.06226872176664178  1.0000
  F   F1        1.0  0.40751657603226527  0.8090208217457974  0.16545433363675555  1.0000
  F   F2        1.0  0.4557520180027519  0.6098757745009624  0.0697062580549277  1.0000
  F   F3        1.0  0.40725140293646406  0.8090012464743833  0.9478109500796132  1.0000
  H   H10       1.0  0.9739075286703875  0.4667054329533558  0.40833036966504976  1.0000
  H   H11       1.0  0.27998315726642065  0.65631472976009  0.2756761736133555  1.0000
  H   H12       1.0  0.27957548171662117  0.6560530698994417  0.8586613589283804  1.0000
  H   H13       1.0  0.03117642963360545  0.5055832787611538  0.07784539246417066  1.0000
  H   H14       1.0  0.11416767893020996  0.5535225863864657  0.6279717147041599  1.0000
  Zn  Zn1       1.0  0.04370679238418207  0.5781570974066461  0.5727351771039013  1.0000
  Zn  Zn2       1.0  0.2553331181634726  0.5781639716962026  0.5726591290107821  1.0000
  C   C23       1.0  0.14950305838062097  0.5723807304239842  0.809879875381616  1.0000
  C   C24       1.0  0.1495391510801791  0.5839421579003565  0.3355145638587511  1.0000
  C   C25       1.0  0.14778254238099486  0.8414881080460621  0.5684608957811501  1.0000
  C   C26       1.0  0.1512596062848195  0.31483304804542933  0.5769336065505346  1.0000
  O   O2        1.0  0.22982426428493868  0.5858590703638751  0.3838800210221609  1.0000
  O   O3        1.0  0.2298374370128686  0.5704679477742829  0.7614563217392349  1.0000
  O   O4        1.0  0.22844701562630612  0.787775558288859  0.5665087933661548  1.0000
  O   O5        1.0  0.23121461341319982  0.3685514701757451  0.578827452080104  1.0000
  O   O6        1.0  0.06782522491676701  0.7877695989263285  0.566566854053705  1.0000
  O   O7        1.0  0.06921563488062675  0.5704637206438259  0.7615143193545932  1.0000
  O   O8        1.0  0.06920246292564447  0.5858547932308449  0.38393645700655776  1.0000
  O   O9        1.0  0.07059281209451918  0.3685471827154938  0.5788839853987641  1.0000
