data_image0
_chemical_formula_structural       NC5NC3OH4C6NH7C9H10Zn2C4O8
_chemical_formula_sum              "N3 C27 O9 H21 Zn2"
_cell_length_a       13.84702359539666
_cell_length_b       9.274771166103582
_cell_length_c       10.297187173949778
_cell_angle_alpha    85.46307945309522
_cell_angle_beta     89.95979786321969
_cell_angle_gamma    90.59789355945463

_space_group_name_H-M_alt    "P 1"
_space_group_IT_number       1

loop_
  _space_group_symop_operation_xyz
  'x, y, z'

loop_
  _atom_site_type_symbol
  _atom_site_label
  _atom_site_symmetry_multiplicity
  _atom_site_fract_x
  _atom_site_fract_y
  _atom_site_fract_z
  _atom_site_occupancy
  N   N1        1.0  0.9208773973169256  0.5785116181696774  0.5642601498434836  1.0000
  C   C1        1.0  0.8486536522065121  0.5698477501929231  0.6211007651598146  1.0000
  C   C2        1.0  0.758708027081498  0.559059404652116  0.6918793077287542  1.0000
  C   C3        1.0  0.6712197086880627  0.5694816307127533  0.6235021550643336  1.0000
  C   C4        1.0  0.5832635955550413  0.5591804980470303  0.6910845015239222  1.0000
  C   C5        1.0  0.49351120761869643  0.569910989481935  0.6206856145566269  1.0000
  N   N2        1.0  0.4213619094942611  0.5785374807852821  0.5640905217814358  1.0000
  C   C6        1.0  0.5827901629280614  0.5384260519427859  0.8272471488081536  1.0000
  C   C7        1.0  0.6698981641999838  0.527994110431268  0.8956856235012745  1.0000
  C   C8        1.0  0.7581690956857922  0.5382288570024458  0.8285401557789769  1.0000
  O   O1        1.0  0.8449973010027123  0.5277791068805822  0.8970970734383448  1.0000
  H   H1        1.0  0.6715910646066877  0.5855605077575579  0.5180150521161455  1.0000
  H   H2        1.0  0.5151608980907487  0.5303185141937297  0.8804375656351888  1.0000
  H   H3        1.0  0.6687487474984037  0.5119471253856493  0.0009641395098966005  1.0000
  H   H4        1.0  0.8463912993459628  0.5127606214727594  0.9956272126866768  1.0000
  C   C9        1.0  0.16815914393749432  0.15492793825792117  0.5648843500012708  1.0000
  C   C10       1.0  0.1459753838374382  0.23821966313137982  0.4487296693000282  1.0000
  C   C11       1.0  0.13280849327035615  0.17315361596901013  0.33183493307775924  1.0000
  C   C12       1.0  0.1418762741628894  0.023418257807136467  0.33024814847258765  1.0000
  C   C13       1.0  0.1622747745585551  0.9388067944582864  0.4448077053636388  1.0000
  C   C14       1.0  0.17408931846069933  0.0021100913707490163  0.5634775628204511  1.0000
  N   N3        1.0  0.11121849604748624  0.25954469496299293  0.21440336119321676  1.0000
  H   H5        1.0  0.2767485877451479  0.23463272850213923  0.84913218155319  1.0000
  H   H6        1.0  0.14110623734631988  0.35481205143126204  0.44823234645973303  1.0000
  H   H7        1.0  0.13220275439048113  0.9719182394213612  0.24030928754155753  1.0000
  H   H8        1.0  0.16653197814937842  0.8226424904956557  0.4410860557584908  1.0000
  H   H9        1.0  0.24331385600554412  0.7050737969372609  0.7568683091857298  1.0000
  H   H10       1.0  0.1045647726989336  0.37161824665448884  0.21436342629714744  1.0000
  H   H11       1.0  0.10163517801974975  0.21206218101018146  0.12660070252958186  1.0000
  C   C15       1.0  0.17125153032265494  0.5784668606928507  0.18272783269595003  1.0000
  C   C16       1.0  0.0736609154929824  0.61808245491216  0.17921330675821867  1.0000
  C   C17       1.0  0.023662365421693657  0.6383784495602751  0.06079630816236037  1.0000
  C   C18       1.0  0.07328260243967956  0.6182354710832687  0.943990456158633  1.0000
  C   C19       1.0  0.17099692718394977  0.5785711594888381  0.9456340557262641  1.0000
  C   C20       1.0  0.21934327051738928  0.5589444557047132  0.06539150779838131  1.0000
  C   C21       1.0  0.9181110794385932  0.6812252509603225  0.06642726767402407  1.0000
  C   C22       1.0  0.8500950080178561  0.6232023935617669  0.9662746885697788  1.0000
  C   C23       1.0  0.8799260145972231  0.7823429631313086  0.9549011898597004  1.0000
  H   H12       1.0  0.20885901539040108  0.5632147924964501  0.5116194800635399  1.0000
  H   H13       1.0  0.03598566064223597  0.6333766092070736  0.2692788645056938  1.0000
  H   H14       1.0  0.03665276303968912  0.6331015305387304  0.8513711193513629  1.0000
  H   H15       1.0  0.2946362851873901  0.5283794750128834  0.06737569239965668  1.0000
  H   H16       1.0  0.35554798007196786  0.5036379852237658  0.7415232358188439  1.0000
  H   H17       1.0  0.8841853261596755  0.6949981571479529  0.16249320956499025  1.0000
  H   H18       1.0  0.8823443947845392  0.5580968163862652  0.8918467352295062  1.0000
  H   H19       1.0  0.7749010924572329  0.603680462908271  0.001451123106732233  1.0000
  H   H20       1.0  0.9302965790624252  0.8139063996993912  0.8735653864963182  1.0000
  H   H21       1.0  0.8221661505696732  0.8558321229619376  0.9834278976535114  1.0000
  Zn  Zn1       1.0  0.0653063852136595  0.578515220945351  0.564218695304598  1.0000
  Zn  Zn2       1.0  0.2769328113800995  0.5785220765200723  0.5641425970412368  1.0000
  C   C24       1.0  0.17100266393025781  0.5728048790947451  0.8014379842799535  1.0000
  C   C25       1.0  0.17123885631510619  0.5842342385213404  0.3269234317071276  1.0000
  C   C26       1.0  0.1729651341900802  0.8419738925068814  0.5585671406545367  1.0000
  C   C27       1.0  0.1692763016876111  0.31506349204673567  0.5697943474903309  1.0000
  O   O2        1.0  0.2515456845813935  0.5861661317713529  0.37528792353417323  1.0000
  O   O3        1.0  0.2513153889296358  0.5708771008123592  0.7530153635102923  1.0000
  O   O4        1.0  0.25289902540009934  0.7882344833989753  0.5568954368298958  1.0000
  O   O5        1.0  0.24996197600190206  0.3688087594879827  0.5714077528272361  1.0000
  O   O6        1.0  0.09227714837415693  0.7882285379766705  0.5569535395377321  1.0000
  O   O7        1.0  0.09069352405366637  0.5708728884517527  0.7530733940794759  1.0000
  O   O8        1.0  0.09092381993900878  0.5861618689302914  0.3753443924414083  1.0000
  O   O9        1.0  0.08934011125084564  0.36880448634290525  0.5714643191409385  1.0000
