data_image0
_chemical_formula_structural       NC5NC3F3CH3C6ClH5C6OCH7Zn2C4O8
_chemical_formula_sum              "N2 C26 F3 H15 Cl1 O9 Zn2"
_cell_length_a       13.85151926108384
_cell_length_b       10.30297070629231
_cell_length_c       9.273891588657152
_cell_angle_alpha    86.0762958320409
_cell_angle_beta     89.68013377981825
_cell_angle_gamma    89.9983157295073

_space_group_name_H-M_alt    "P 1"
_space_group_IT_number       1

loop_
  _space_group_symop_operation_xyz
  'x, y, z'

loop_
  _atom_site_type_symbol
  _atom_site_label
  _atom_site_symmetry_multiplicity
  _atom_site_fract_x
  _atom_site_fract_y
  _atom_site_fract_z
  _atom_site_occupancy
  N   N1        1.0  0.9149938731696085  0.4079183123139687  0.4100978863716573  1.0000
  C   C1        1.0  0.8424310721206834  0.4002515962816722  0.4725567942388438  1.0000
  C   C2        1.0  0.752157225287084  0.39071315316456917  0.55026461081923  1.0000
  C   C3        1.0  0.6649132540029131  0.39840119222907305  0.47474921046706786  1.0000
  C   C4        1.0  0.5771052358584361  0.3907131411674573  0.5502645907630304  1.0000
  C   C5        1.0  0.4874118196495123  0.4002516115842589  0.47255688829502285  1.0000
  N   N2        1.0  0.4153156871629691  0.40791827906158  0.4100979918112697  1.0000
  C   C6        1.0  0.5765312881024177  0.37444006965686033  0.701471384584042  1.0000
  C   C7        1.0  0.6637796795557462  0.36389070024283865  0.7782487034779435  1.0000
  C   C8        1.0  0.6631707410775465  0.3511916644671209  0.9412497439460147  1.0000
  F   F1        1.0  0.7439137673785581  0.2842597899553032  0.9928444162538392  1.0000
  F   F2        1.0  0.5820449523473288  0.2842597632150221  0.9928445155381374  1.0000
  F   F3        1.0  0.6629747494098861  0.473876742038376  0.9929644803669994  1.0000
  C   C9        1.0  0.751601614871903  0.3744399840655202  0.7014714041974539  1.0000
  H   H1        1.0  0.6653505372156705  0.4111445996123986  0.3576795496059726  1.0000
  H   H2        1.0  0.5081926724567304  0.3702468917993181  0.7591163928998745  1.0000
  H   H3        1.0  0.8195094261309323  0.3702468186376646  0.7591163518629807  1.0000
  C   C10       1.0  0.16515935471962603  0.026670910595128383  0.4101041314466467  1.0000
  C   C11       1.0  0.2647432404756307  0.023753413638457396  0.4378670428273007  1.0000
  C   C12       1.0  0.31415410702838575  0.9053489847892067  0.4516421576956289  1.0000
  C   C13       1.0  0.26474323995819127  0.7886454444177768  0.43786697503840805  1.0000
  C   C14       1.0  0.1651593647142458  0.78915585307821  0.41010421395850694  1.0000
  C   C15       1.0  0.11585284843197963  0.9087620493587782  0.39635805828031734  1.0000
  Cl  Cl1       1.0  0.4385581071685491  0.9032078521133189  0.4863245493000603  1.0000
  H   H4        1.0  0.12764785211988874  0.3550729923684696  0.39964552199895054  1.0000
  H   H5        1.0  0.304350172476078  0.11311831769878289  0.44890890365444114  1.0000
  H   H6        1.0  0.3043501346846436  0.6979171240292779  0.4489088000956935  1.0000
  H   H7        1.0  0.03905073382436976  0.9100837840489077  0.37494642207111517  1.0000
  H   H8        1.0  0.12764784639502483  0.4620450279033599  0.39964579413648166  1.0000
  C   C16       1.0  0.1667409237027837  0.4044749759240758  0.9868288148327687  1.0000
  C   C17       1.0  0.24580188163506023  0.45931104517394344  0.055402527648183535  1.0000
  C   C18       1.0  0.3193867543762501  0.5238415950951023  0.9755927941730456  1.0000
  C   C19       1.0  0.3141738004225065  0.5338613912068104  0.824152181078992  1.0000
  C   C20       1.0  0.23714108227616748  0.47823921838183364  0.7542362706092862  1.0000
  C   C21       1.0  0.1635777947914283  0.4113517037417886  0.8333794553728087  1.0000
  O   O1        1.0  0.3958112088394463  0.5770791935739525  0.05079941431746459  1.0000
  C   C22       1.0  0.47531061157895105  0.6454047688555671  0.983723056371073  1.0000
  H   H9        1.0  0.9371095475959494  0.3247358416952071  0.09784602052737568  1.0000
  H   H10       1.0  0.36978669702498435  0.5834370649872636  0.7592300545156739  1.0000
  H   H11       1.0  0.2363621081246069  0.48493033698410576  0.637155094614176  1.0000
  H   H12       1.0  0.010444140418039314  0.3525200784487317  0.557936784712068  1.0000
  H   H13       1.0  0.449395991798637  0.7332600148551288  0.9193274781793708  1.0000
  H   H14       1.0  0.5155643439468437  0.580971667697261  0.9133103914716219  1.0000
  H   H15       1.0  0.52472927202535  0.676436855072529  0.06856660909803214  1.0000
  Zn  Zn1       1.0  0.059375910276931336  0.40791490430750854  0.41010622487465787  1.0000
  Zn  Zn2       1.0  0.2709335886870028  0.407911193117815  0.4101014057358974  1.0000
  C   C23       1.0  0.164173556038781  0.40487986273630416  0.6733632756913197  1.0000
  C   C24       1.0  0.16613825259988046  0.4109478738953766  0.14684449633967483  1.0000
  C   C25       1.0  0.16517587204886613  0.6449832798963663  0.40436031481497536  1.0000
  C   C26       1.0  0.16513586411274805  0.17084289755523097  0.41584753406446384  1.0000
  O   O2        1.0  0.24622102708656443  0.4131131652712614  0.20054539197642504  1.0000
  O   O3        1.0  0.24465816590419476  0.4027107718723059  0.6196583075139133  1.0000
  O   O4        1.0  0.245466460877573  0.5965973299451015  0.40243651339039466  1.0000
  O   O5        1.0  0.2454126603266984  0.21922661560907383  0.4177670780269831  1.0000
  O   O6        1.0  0.08489676644301182  0.596599481818868  0.4024405525776348  1.0000
  O   O7        1.0  0.08408847175245615  0.40271448292877365  0.6196622698467726  1.0000
  O   O8        1.0  0.08565133947422932  0.4131168170087294  0.2005476213353347  1.0000
  O   O9        1.0  0.08484297230662687  0.21923025893855197  0.41776941545291607  1.0000
