data_image0
_chemical_formula_structural       NC5NC3OH4C6NCH9C6H6Zn2C4O8
_chemical_formula_sum              "N3 C25 O9 H19 Zn2"
_cell_length_a       13.84702359539666
_cell_length_b       9.273386996610926
_cell_length_c       10.681121600428286
_cell_angle_alpha    85.46621756597041
_cell_angle_beta     89.98558129558303
_cell_angle_gamma    89.39943260271846

_space_group_name_H-M_alt    "P 1"
_space_group_IT_number       1

loop_
  _space_group_symop_operation_xyz
  'x, y, z'

loop_
  _atom_site_type_symbol
  _atom_site_label
  _atom_site_symmetry_multiplicity
  _atom_site_fract_x
  _atom_site_fract_y
  _atom_site_fract_z
  _atom_site_occupancy
  N   N1        1.0  0.8982806251943785  0.578920696176041  0.6161125343491138  1.0000
  C   C1        1.0  0.8261973364925113  0.5702478928192496  0.6709091123088611  1.0000
  C   C2        1.0  0.7364266092524662  0.5594484208469879  0.7391423976829026  1.0000
  C   C3        1.0  0.6487693282105303  0.5698813958269189  0.6732241461547259  1.0000
  C   C4        1.0  0.560980214471875  0.5595696391786397  0.7383761733831622  1.0000
  C   C5        1.0  0.471053866598388  0.5703111973648551  0.6705088908715444  1.0000
  N   N2        1.0  0.3987647181095675  0.57894658545826  0.6159490062590818  1.0000
  C   C6        1.0  0.5608432475981174  0.5387937882209745  0.869642294897602  1.0000
  C   C7        1.0  0.6481203682115785  0.5283510881006006  0.9356196632014937  1.0000
  C   C8        1.0  0.7362253769880012  0.5385963900043288  0.8708888042090568  1.0000
  O   O1        1.0  0.8232229908943596  0.5281358626873355  0.9369803562083594  1.0000
  H   H1        1.0  0.6488800177613188  0.5859768555262836  0.5715304500687857  1.0000
  H   H2        1.0  0.4933454199821754  0.5306778888989785  0.9209199386337763  1.0000
  H   H3        1.0  0.6472311010694884  0.5122875532036848  0.03711227332946144  1.0000
  H   H4        1.0  0.8248604647728928  0.5131018882618277  0.031967266982987796  1.0000
  C   C9        1.0  0.15149698628079844  0.15527980222762627  0.6166451594957263  1.0000
  C   C10       1.0  0.1684537927819918  0.23875627745645067  0.5034099475907641  1.0000
  C   C11       1.0  0.17631775169361297  0.17425379390297024  0.390170707902119  1.0000
  C   C12       1.0  0.16734386414853364  0.023952665269555855  0.38727144264997304  1.0000
  C   C13       1.0  0.1520889212195198  0.9395133636586845  0.5001127638722096  1.0000
  C   C14       1.0  0.14555763748696585  0.002576351573178487  0.6154272148418525  1.0000
  N   N3        1.0  0.17439144065353918  0.954413714825241  0.2716945867060856  1.0000
  C   C15       1.0  0.1904792628278871  0.03231104265614682  0.14948419528729073  1.0000
  H   H5        1.0  0.17122696459159825  0.4174255440170663  0.8222366930348176  1.0000
  H   H6        1.0  0.17337946592366407  0.35540242550113343  0.5018719486318162  1.0000
  H   H7        1.0  0.18849648944695674  0.2428565414174526  0.3051029855264744  1.0000
  H   H8        1.0  0.147530640455984  0.8231120583605064  0.4981386959624227  1.0000
  H   H9        1.0  0.18111497159905188  0.8712162420373121  0.9204280815509585  1.0000
  H   H10       1.0  0.16756390157054546  0.8420462392064821  0.27429365089450597  1.0000
  H   H11       1.0  0.1306112937915065  0.11088150837977251  0.127745442861936  1.0000
  H   H12       1.0  0.26037854267336624  0.08986640551518363  0.14966343039200836  1.0000
  H   H13       1.0  0.1929137610465126  0.954874573901982  0.07534623795545459  1.0000
  C   C16       1.0  0.1485273433005847  0.5789280664617071  0.2482909468966774  1.0000
  C   C17       1.0  0.07996735604151996  0.49868811984882644  0.18700638232939681  1.0000
  C   C18       1.0  0.07996729509823486  0.49868821235139443  0.056124242263232205  1.0000
  C   C19       1.0  0.1485272668863562  0.5789281371776237  0.9837813824961725  1.0000
  C   C20       1.0  0.21703066858613254  0.6591015889165579  0.04506548093882579  1.0000
  C   C21       1.0  0.21703065638729813  0.6591015665452056  0.17595777963806647  1.0000
  H   H14       1.0  0.21785965904094495  0.6600726999114561  0.5414092114040623  1.0000
  H   H15       1.0  0.02622680143642775  0.4357922573842048  0.2401513280356009  1.0000
  H   H16       1.0  0.02622678079136298  0.4357923252923978  0.011647298719041462  1.0000
  H   H17       1.0  0.2707782405052337  0.7220057394332364  0.9919648563751089  1.0000
  H   H18       1.0  0.27077819220287513  0.7220056888568245  0.22038922394811358  1.0000
  H   H19       1.0  0.21785996396962526  0.6600721972925572  0.6794801863146569  1.0000
  Zn  Zn1       1.0  0.042709548704134015  0.5789243051021025  0.6160725701077303  1.0000
  Zn  Zn2       1.0  0.25433585328549224  0.5789311719997461  0.6159992076289675  1.0000
  C   C22       1.0  0.1485654398886136  0.5731807786933905  0.8447662197760111  1.0000
  C   C23       1.0  0.14848226029381117  0.5846765187877097  0.3873056774558765  1.0000
  C   C24       1.0  0.14667534650917613  0.842419281589321  0.6106671153316421  1.0000
  C   C25       1.0  0.15037229360998738  0.31543628258571244  0.6214048511820742  1.0000
  O   O2        1.0  0.2287782538326531  0.5866020639130138  0.4339324593158267  1.0000
  O   O3        1.0  0.22888892245673542  0.5712593570336236  0.7980833985655628  1.0000
  O   O4        1.0  0.22736156551750208  0.7886728530726241  0.6090467136557145  1.0000
  O   O5        1.0  0.23030553848582702  0.3691885781919564  0.6229690503397327  1.0000
  O   O6        1.0  0.06673979128611673  0.7886668989091201  0.6091027274154106  1.0000
  O   O7        1.0  0.06826713607092882  0.5712551361754128  0.7981393430618765  1.0000
  O   O8        1.0  0.06815646786356934  0.5865977927809303  0.43398689826180153  1.0000
  O   O9        1.0  0.06968375258512038  0.36918429674115694  0.6230235831900961  1.0000
