data_image0
_chemical_formula_structural       NC10NC2SH6C10IC2H9C10OC3H12Zn2C4O8
_chemical_formula_sum              "N2 C41 S1 H27 I1 O9 Zn2"
_cell_length_a       18.726821288119407
_cell_length_b       10.299770258652044
_cell_length_c       10.299151058433395
_cell_angle_alpha    85.5755714012209
_cell_angle_beta     89.97189069449101
_cell_angle_gamma    90.7344844494229

_space_group_name_H-M_alt    "P 1"
_space_group_IT_number       1

loop_
  _space_group_symop_operation_xyz
  'x, y, z'

loop_
  _atom_site_type_symbol
  _atom_site_label
  _atom_site_symmetry_multiplicity
  _atom_site_fract_x
  _atom_site_fract_y
  _atom_site_fract_z
  _atom_site_occupancy
  N   N1        1.0  0.673030804175637  0.43636053540636727  0.5662357914495806  1.0000
  C   C1        1.0  0.6137718309336379  0.40300802098717825  0.5690560081421063  1.0000
  C   C2        1.0  0.5402315018302719  0.36162214847552104  0.5725551550407275  1.0000
  C   C3        1.0  0.5158901420145733  0.23364873437064634  0.582292903328397  1.0000
  C   C4        1.0  0.44126396811793517  0.22260968463128855  0.5831734556562194  1.0000
  C   C5        1.0  0.4066556686577361  0.34245674846942076  0.5741620185711251  1.0000
  C   C6        1.0  0.3283034437033446  0.3636919117277817  0.5724293849202884  1.0000
  C   C7        1.0  0.2798857459664722  0.26034891607642496  0.604503701121508  1.0000
  C   C8        1.0  0.20627059574917542  0.28148879853926484  0.6026319926692723  1.0000
  C   C9        1.0  0.1798716626451399  0.40594361456490513  0.5689003510674702  1.0000
  C   C10       1.0  0.1040692282609936  0.4275082248632515  0.5670355206110478  1.0000
  N   N2        1.0  0.0431306299551975  0.44484437555152523  0.5655361486810933  1.0000
  C   C11       1.0  0.22738420417201832  0.5094081961419539  0.5371844963985213  1.0000
  C   C12       1.0  0.3010172035612467  0.488597244401049  0.539022341716469  1.0000
  S   S1        1.0  0.4699746249529928  0.46120528193573374  0.5648410070243362  1.0000
  H   H1        1.0  0.5508000116861191  0.15045990548316918  0.5882009219777904  1.0000
  H   H2        1.0  0.414165130318775  0.12907690666042515  0.5889024783575234  1.0000
  H   H3        1.0  0.2983766444379647  0.16321610575908857  0.6323725642350131  1.0000
  H   H4        1.0  0.16994783890929158  0.2007154606824228  0.6278084689291006  1.0000
  H   H5        1.0  0.20753814666633927  0.6062428807899114  0.5109170258252038  1.0000
  H   H6        1.0  0.3363846007445788  0.5705011761567114  0.5134598145468847  1.0000
  C   C13       1.0  0.8580168331241619  0.05923571182321519  0.5658829997459338  1.0000
  C   C14       1.0  0.8633483597340991  0.06888655736507832  0.4294741469619934  1.0000
  C   C15       1.0  0.8661183195057154  0.9566390041054249  0.36036370505249815  1.0000
  C   C16       1.0  0.8634844086309559  0.8336018854430494  0.4294915063404994  1.0000
  C   C17       1.0  0.8581514159496025  0.821959293348268  0.5659001938834596  1.0000
  C   C18       1.0  0.8554478842272817  0.9353336960415835  0.6333321291601686  1.0000
  C   C19       1.0  0.871759051886663  0.9679021384365943  0.21605633935327706  1.0000
  C   C20       1.0  0.9174708958538004  0.8860987217692133  0.15202182748998716  1.0000
  C   C21       1.0  0.9227081083124441  0.896909958277833  0.01618865505316003  1.0000
  C   C22       1.0  0.8824415436725557  0.9892322728479142  0.9427452009692439  1.0000
  I   I1        1.0  0.8904493674627277  0.005222059034426517  0.7378575452362139  1.0000
  C   C23       1.0  0.8368611342614231  0.07094405503811374  0.005260654508166152  1.0000
  C   C24       1.0  0.8314808247115684  0.06055488118378728  0.14107556736809035  1.0000
  H   H7        1.0  0.8559528401321839  0.383011274400153  0.6178570155918504  1.0000
  H   H8        1.0  0.8663444929557458  0.16395218021888658  0.3767762597461035  1.0000
  H   H9        1.0  0.8646175499728553  0.746781000608865  0.3765565311196608  1.0000
  H   H10       1.0  0.8513342068772832  0.9271202643849207  0.7385652299337511  1.0000
  H   H11       1.0  0.8561510011502023  0.49006973934727044  0.6178821557937135  1.0000
  H   H12       1.0  0.9498304322923573  0.8149870272823614  0.20704054108132433  1.0000
  H   H13       1.0  0.9582126062604932  0.8337048781680821  0.9681234961503287  1.0000
  H   H14       1.0  0.8054468151820537  0.14231624490630893  0.9486769559435299  1.0000
  H   H15       1.0  0.7951620713117321  0.12376128727920731  0.1873518475938929  1.0000
  C   C25       1.0  0.8581725006098145  0.44050903486865106  0.18451436860394033  1.0000
  C   C26       1.0  0.7852130567810423  0.40721005885394707  0.18636776721311676  1.0000
  C   C27       1.0  0.7481292013864569  0.3904199521138982  0.07015751890371869  1.0000
  C   C28       1.0  0.784989949428795  0.40737355354134047  0.9510718210297235  1.0000
  C   C29       1.0  0.8579957801841643  0.44068596983242725  0.9472687810850315  1.0000
  C   C30       1.0  0.8941374271553063  0.4570514568927849  0.06445814145739792  1.0000
  C   C31       1.0  0.6709437272838886  0.35519619160840343  0.07316257692280659  1.0000
  C   C32       1.0  0.6438226439642274  0.26203979202075195  0.16809739779127808  1.0000
  C   C33       1.0  0.5711935446606544  0.22897493727903132  0.17075412918563426  1.0000
  C   C34       1.0  0.5242848072693134  0.2879850390829437  0.07918761624278581  1.0000
  O   O1        1.0  0.4518846419133941  0.251412510218336  0.08607602384358759  1.0000
  C   C35       1.0  0.3983825943950362  0.3033557678117575  0.9994265661768438  1.0000
  C   C36       1.0  0.5511197525533973  0.38133299642196694  0.9839787260473484  1.0000
  C   C37       1.0  0.6237637083256112  0.41445482730580396  0.9811166060419745  1.0000
  H   H16       1.0  0.8862450182434108  0.4532466887965154  0.5112826015266438  1.0000
  H   H17       1.0  0.756824833163664  0.39599621338374685  0.2782760609982189  1.0000
  H   H18       1.0  0.7568983619744956  0.3928159868597434  0.8613285074974537  1.0000
  H   H19       1.0  0.9504133759162772  0.482732044050836  0.06231322519354455  1.0000
  H   H20       1.0  0.9958948085594999  0.5027566241144856  0.7328603415372301  1.0000
  H   H21       1.0  0.678935970706692  0.21347401225527404  0.23928928748875153  1.0000
  H   H22       1.0  0.5512451353177696  0.15674574355595094  0.24429079065217074  1.0000
  H   H23       1.0  0.3461584909756101  0.25727310846636464  0.027181419510283522  1.0000
  H   H24       1.0  0.4111070831649025  0.28196941186642194  0.8979940133585046  1.0000
  H   H25       1.0  0.39440292565019763  0.41012245586597373  0.006073644982624419  1.0000
  H   H26       1.0  0.5163041179863226  0.42909175649162457  0.9119708396017607  1.0000
  H   H27       1.0  0.6428950508958482  0.48775658737315686  0.9078519890409527  1.0000
  Zn  Zn1       1.0  0.7798336180227172  0.4388053028465073  0.5660413915522939  1.0000
  Zn  Zn2       1.0  0.9363278021238135  0.4423889471243391  0.565741193867114  1.0000
  C   C38       1.0  0.8580266583340943  0.4354788605835014  0.8030917670017288  1.0000
  C   C39       1.0  0.8581364709836763  0.4457170671606785  0.328690942645643  1.0000
  C   C40       1.0  0.8581235074049695  0.6777870371230659  0.5607216469338623  1.0000
  C   C41       1.0  0.8580395682208977  0.20340732912042303  0.5710611320209591  1.0000
  O   O2        1.0  0.9175131054022994  0.4488192389910352  0.37696399437873085  1.0000
  O   O3        1.0  0.9174254885330159  0.4350956120363429  0.7545904982954637  1.0000
  O   O4        1.0  0.9175028944812076  0.6307625109773731  0.5588749130980142  1.0000
  O   O5        1.0  0.9174356460774465  0.253152348094728  0.5726794823020394  1.0000
  O   O6        1.0  0.7987257206653015  0.6280419006546083  0.5591031032129805  1.0000
  O   O7        1.0  0.7986483150052303  0.4323765619927593  0.7548186191985926  1.0000
  O   O8        1.0  0.7987359322758355  0.446100143330567  0.37719055384607625  1.0000
  O   O9        1.0  0.798658472923861  0.25043324316802695  0.5729061391391375  1.0000
