data_image0
_chemical_formula_structural       NC9NC3OCH8C12NCOCH13C12NCOH11Zn2C4O8
_chemical_formula_sum              "N4 C44 O11 H32 Zn2"
_cell_length_a       17.728193572023454
_cell_length_b       10.299155265289647
_cell_length_c       10.299148425239203
_cell_angle_alpha    85.52041506248939
_cell_angle_beta     90.68912747422073
_cell_angle_gamma    88.43175330785004

_space_group_name_H-M_alt    "P 1"
_space_group_IT_number       1

loop_
  _space_group_symop_operation_xyz
  'x, y, z'

loop_
  _atom_site_type_symbol
  _atom_site_label
  _atom_site_symmetry_multiplicity
  _atom_site_fract_x
  _atom_site_fract_y
  _atom_site_fract_z
  _atom_site_occupancy
  N   N1        1.0  0.7105048226519467  0.3876251167574312  0.5846902822881552  1.0000
  C   C1        1.0  0.6498959556570707  0.35018860460783263  0.5977069988741468  1.0000
  C   C2        1.0  0.5744462427197674  0.3036500161554343  0.6139074548166197  1.0000
  C   C3        1.0  0.5625649757292921  0.17559750077999436  0.6233644524766049  1.0000
  C   C4        1.0  0.48585941851287384  0.12613569424420581  0.6383301284506764  1.0000
  C   C5        1.0  0.4276967150222203  0.20880501245854188  0.6557781164750831  1.0000
  C   C6        1.0  0.3496512356510205  0.16374426538727072  0.67752662671525  1.0000
  C   C7        1.0  0.2883028117221014  0.24923482442725553  0.6420383416757414  1.0000
  C   C8        1.0  0.21403067760470654  0.20992042302201772  0.6621989200619935  1.0000
  C   C9        1.0  0.15170344040743433  0.297948870133494  0.62463541874168  1.0000
  N   N2        1.0  0.10160575187078862  0.36871521262896967  0.5944379145415144  1.0000
  C   C10       1.0  0.20047536600301968  0.08499515774098974  0.718901982048461  1.0000
  C   C11       1.0  0.2609248685915764  0.9998215842470739  0.7557988454882416  1.0000
  C   C12       1.0  0.3350934203657179  0.03864626431017771  0.735767998103787  1.0000
  O   O1        1.0  0.44103403590928214  0.34260224947042867  0.6544451374502496  1.0000
  C   C13       1.0  0.5087573790816103  0.40000778838809037  0.6058159850446778  1.0000
  H   H1        1.0  0.6095023869907602  0.10613191201411157  0.6212825436272467  1.0000
  H   H2        1.0  0.4782222250703752  0.022478731000970635  0.6363763961680673  1.0000
  H   H3        1.0  0.2981863991784871  0.34608692803387126  0.5975814190520103  1.0000
  H   H4        1.0  0.14326294022023006  0.053697483087342894  0.7350520662776665  1.0000
  H   H5        1.0  0.2503044194143524  0.9036282072203587  0.8007167541268513  1.0000
  H   H6        1.0  0.38062938499324683  0.9713965084082236  0.7682093659388873  1.0000
  H   H7        1.0  0.4992979255628209  0.4359838912499405  0.5022720981156923  1.0000
  H   H8        1.0  0.5216189178924086  0.4843768369771191  0.6623788799128774  1.0000
  C   C14       1.0  0.9061431834495441  0.9967683851957451  0.5896850048280635  1.0000
  C   C15       1.0  0.8932721642701824  0.007158637615262585  0.45443002723167947  1.0000
  C   C16       1.0  0.8866732160703847  0.895292623443866  0.3857333514190209  1.0000
  C   C17       1.0  0.8930917688809693  0.7719077449923271  0.45411772578961807  1.0000
  C   C18       1.0  0.9059746686612759  0.7595616433036383  0.5894545955008237  1.0000
  C   C19       1.0  0.9124244214058002  0.8725132910851388  0.6564051283725749  1.0000
  C   C20       1.0  0.8730581635221856  0.9072578801744774  0.24264994029162515  1.0000
  C   C21       1.0  0.9113421464582002  0.9995586770937663  0.16218108702228617  1.0000
  C   C22       1.0  0.8985356945229527  0.0106875945398428  0.02753021780588094  1.0000
  C   C23       1.0  0.8476584563520217  0.9288332349643791  0.9705078954136703  1.0000
  C   C24       1.0  0.8084526772504266  0.8383933271058837  0.05088561022342142  1.0000
  C   C25       1.0  0.8212866204460622  0.8270070797961985  0.1854998266647041  1.0000
  N   N3        1.0  0.8324239345966463  0.9398799852965785  0.8325579658637237  1.0000
  C   C26       1.0  0.8875411201899183  0.9742009366311281  0.7357074047347099  1.0000
  O   O2        1.0  0.9567680925663948  0.9733740928694898  0.7652930626881562  1.0000
  C   C27       1.0  0.8634867652173803  0.001880364290394177  0.5965587554034939  1.0000
  H   H9        1.0  0.9111173532072667  0.32024690680668155  0.6417047438383043  1.0000
  H   H10       1.0  0.8873091971456004  0.10251808702623898  0.4024683156262649  1.0000
  H   H11       1.0  0.8890400828918331  0.6853310162074988  0.4013847844609735  1.0000
  H   H12       1.0  0.9223546480292762  0.8637840845464448  0.7607297369321944  1.0000
  H   H13       1.0  0.9307423714208809  0.528953921099753  0.8447762936883361  1.0000
  H   H14       1.0  0.9516334628458805  0.06263878919926436  0.20328028422447542  1.0000
  H   H15       1.0  0.9274954742674456  0.08477295852510333  0.9686675915265819  1.0000
  H   H16       1.0  0.7680890672808045  0.7760211965141293  0.00891751745029912  1.0000
  H   H17       1.0  0.7899018049884614  0.7566548967951569  0.24513501534841908  1.0000
  H   H18       1.0  0.7792759069500097  0.9135967543497412  0.8001578112571934  1.0000
  H   H19       1.0  0.8090125395698863  0.05796212303658033  0.5907471258526287  1.0000
  H   H20       1.0  0.8565102883181106  0.9086307768784259  0.5511577921728588  1.0000
  H   H21       1.0  0.9064558590226266  0.059921904785712465  0.5422307156711841  1.0000
  C   C28       1.0  0.9061156400079342  0.37831810603067134  0.20817496233036215  1.0000
  C   C29       1.0  0.9826742854408158  0.410178031909636  0.20610310142922628  1.0000
  C   C30       1.0  0.02137129662774551  0.42612325503724113  0.08791756459269817  1.0000
  C   C31       1.0  0.982515272180775  0.4098455443423987  0.9708420841308492  1.0000
  C   C32       1.0  0.9060021768801929  0.3780118919004956  0.9709646157061211  1.0000
  C   C33       1.0  0.8682512429097371  0.3624258243175591  0.09014799728950296  1.0000
  C   C34       1.0  0.10231556117688712  0.4598051711003919  0.08681731740803222  1.0000
  C   C35       1.0  0.15303791840038364  0.3999774834999057  0.004500472724097151  1.0000
  C   C36       1.0  0.2291698849488555  0.4318124854407921  0.0036133058646012923  1.0000
  C   C37       1.0  0.25636237556855423  0.522777589143395  0.0857726618581871  1.0000
  C   C38       1.0  0.2055647170562614  0.584455271340873  0.16651868559415628  1.0000
  C   C39       1.0  0.12939862280411973  0.5527285960304338  0.16750181147798715  1.0000
  N   N4        1.0  0.3347279662106861  0.5551982608448167  0.0811796764124535  1.0000
  C   C40       1.0  0.37812806677712163  0.5897756283194353  0.1909805849213384  1.0000
  O   O3        1.0  0.35259673801092317  0.5768464742204786  0.3047086287771008  1.0000
  H   H22       1.0  0.761735203462824  0.31741431068146575  0.41944159105703327  1.0000
  H   H23       1.0  0.01261273343511538  0.42092682509315416  0.2967720624512644  1.0000
  H   H24       1.0  0.01179203398886553  0.4238228338240926  0.8793343038483868  1.0000
  H   H25       1.0  0.8092356633346798  0.3378681541370401  0.09095762759150694  1.0000
  H   H26       1.0  0.8765754069312195  0.3657314066704982  0.6435386729248807  1.0000
  H   H27       1.0  0.13402783629248582  0.3273813539433161  0.941875628898298  1.0000
  H   H28       1.0  0.26731093295004826  0.3844270005597319  0.9396225087584518  1.0000
  H   H29       1.0  0.2241460744227596  0.6592368296489479  0.22672559350784913  1.0000
  H   H30       1.0  0.0913460327588338  0.6027762567254911  0.22960144851695904  1.0000
  H   H31       1.0  0.3637544227518368  0.5448548334794574  0.994722696590439  1.0000
  H   H32       1.0  0.43478368852634275  0.6240788468530638  0.1765577899648081  1.0000
  Zn  Zn1       1.0  0.8233681136937744  0.38216465323972515  0.5875107396693096  1.0000
  Zn  Zn2       1.0  0.9887424871854625  0.3741650672468468  0.5916280987547766  1.0000
  C   C41       1.0  0.9060230900764296  0.3728957303181657  0.826782588787919  1.0000
  C   C42       1.0  0.9060893163047767  0.38343554152204207  0.3523564215777464  1.0000
  C   C43       1.0  0.9060033860347296  0.6153797191138541  0.5843225396335472  1.0000
  C   C44       1.0  0.9061089642502438  0.14094999499193245  0.5948165390418039  1.0000
  O   O4        1.0  0.9688391959657948  0.3821115322001276  0.4023075544416306  1.0000
  O   O5        1.0  0.9687885336651719  0.36814725931291287  0.7799560626251878  1.0000
  O   O6        1.0  0.9687717761839763  0.5639561872759322  0.5841678360162896  1.0000
  O   O7        1.0  0.9688558970283498  0.18630261629693656  0.5980956822614576  1.0000
  O   O8        1.0  0.8432546474167302  0.570027106920918  0.5810431547507438  1.0000
  O   O9        1.0  0.8432714045600014  0.3742197394236025  0.7768313116380721  1.0000
  O   O10       1.0  0.8433220671530673  0.3881839676754004  0.39918124196258337  1.0000
  O   O11       1.0  0.8433387682001057  0.1923750424436641  0.5949694671595973  1.0000
