data_image0
_chemical_formula_structural       NC5NC3F3CH3C6NCH9C6OCH7Zn2C4O8
_chemical_formula_sum              "N3 C27 F3 H19 O9 Zn2"
_cell_length_a       13.85151926108384
_cell_length_b       9.273386996610926
_cell_length_c       9.273891588657152
_cell_angle_alpha    85.97842517681073
_cell_angle_beta     89.68013377981825
_cell_angle_gamma    89.3985898819531

_space_group_name_H-M_alt    "P 1"
_space_group_IT_number       1

loop_
  _space_group_symop_operation_xyz
  'x, y, z'

loop_
  _atom_site_type_symbol
  _atom_site_label
  _atom_site_symmetry_multiplicity
  _atom_site_fract_x
  _atom_site_fract_y
  _atom_site_fract_z
  _atom_site_occupancy
  N   N1        1.0  0.9040403313007729  0.564499088529552  0.407505180710384  1.0000
  C   C1        1.0  0.83153717696169  0.5559797233507373  0.4699782069663197  1.0000
  C   C2        1.0  0.7413375387914288  0.5453804681012107  0.5477035887529067  1.0000
  C   C3        1.0  0.6540337549051737  0.5539235277402521  0.4721740307452665  1.0000
  C   C4        1.0  0.5662855494561182  0.5453804547698475  0.5477035687188  1.0000
  C   C5        1.0  0.47651792437146534  0.5559797403551918  0.46997830099431886  1.0000
  N   N2        1.0  0.40436214555283523  0.5644990515790191  0.4075052862112316  1.0000
  C   C6        1.0  0.5658382054728944  0.5272975835384466  0.6989403296794263  1.0000
  C   C7        1.0  0.6531686705512024  0.515574972440596  0.7757370754176012  1.0000
  C   C8        1.0  0.6526585300066944  0.5014636211480188  0.9387615013773305  1.0000
  F   F1        1.0  0.7339222833153832  0.42708795904358127  0.9904794298772572  1.0000
  F   F2        1.0  0.572053468492192  0.42708792932939676  0.9904795292107987  1.0000
  F   F3        1.0  0.6515080538905368  0.6377930447783884  0.9902503111288555  1.0000
  C   C9        1.0  0.7409085329082767  0.5272974884281176  0.6989403494504562  1.0000
  H   H1        1.0  0.6543718949751046  0.568084185401708  0.3550809026814379  1.0000
  H   H2        1.0  0.4975322125644956  0.5226380639634896  0.7565930598040282  1.0000
  H   H3        1.0  0.8088489668078919  0.5226379826652077  0.7565930189018626  1.0000
  C   C10       1.0  0.15717190068457132  0.14085148960523772  0.40821349939869067  1.0000
  C   C11       1.0  0.17461840352708058  0.22315066413593754  0.27788792344667224  1.0000
  C   C12       1.0  0.18297503756813654  0.15747127752468937  0.14755429029326117  1.0000
  C   C13       1.0  0.17401675199005825  0.007140460101523243  0.14421390485233215  1.0000
  C   C14       1.0  0.1582732811177574  0.9238742845216624  0.2740867591402914  1.0000
  C   C15       1.0  0.15123981260868624  0.9881356719265836  0.40680942942341214  1.0000
  N   N3        1.0  0.1815674927276268  0.9364003589007879  0.011189404812877337  1.0000
  C   C16       1.0  0.19818454593871135  0.013027178513813168  0.8705332107870155  1.0000
  H   H4        1.0  0.17599632769163615  0.4051323143815467  0.644853559472299  1.0000
  H   H5        1.0  0.17954919880103204  0.33978059474170075  0.27611956406270416  1.0000
  H   H6        1.0  0.19552184107947568  0.22518960735497195  0.049647256009412125  1.0000
  H   H7        1.0  0.15372511811424783  0.807452689545566  0.27181292277727076  1.0000
  H   H8        1.0  0.18545168816068627  0.8599427146236345  0.7578740308843663  1.0000
  H   H9        1.0  0.17473081045170655  0.8240602168055293  0.014178318066082838  1.0000
  H   H10       1.0  0.1384311448991027  0.09137467850379676  0.8454897210863928  1.0000
  H   H11       1.0  0.26806027855237763  0.07058102510681154  0.8707658079710088  1.0000
  H   H12       1.0  0.2009424834095921  0.9348203201466042  0.7852024985778643  1.0000
  C   C17       1.0  0.15581417083795865  0.560672803583635  0.9842424501343722  1.0000
  C   C18       1.0  0.2344485065896745  0.621607432822856  0.052715181390031285  1.0000
  C   C19       1.0  0.3075313345217312  0.6933147084871911  0.9727866138031108  1.0000
  C   C20       1.0  0.30224042699975345  0.7044488501109729  0.8213275490830809  1.0000
  C   C21       1.0  0.2256404468848372  0.642640691267093  0.7515140677963147  1.0000
  C   C22       1.0  0.1525975412899448  0.5683143224905061  0.8307804270624768  1.0000
  O   O1        1.0  0.38354160283589195  0.7524730940037294  0.04789519599904858  1.0000
  C   C23       1.0  0.46250943563769903  0.828397456458861  0.9806930153367418  1.0000
  H   H13       1.0  0.9268031616499445  0.4720655301856734  0.09540649680897939  1.0000
  H   H14       1.0  0.35746762706452717  0.7595380522077069  0.7563141280682686  1.0000
  H   H15       1.0  0.2248094161280609  0.6500759585428575  0.6344205699918146  1.0000
  H   H16       1.0  0.9999215943454764  0.5029397738802068  0.5554460958463081  1.0000
  H   H17       1.0  0.43591130594985983  0.9260234700469298  0.9161356502063495  1.0000
  H   H18       1.0  0.5032644546676828  0.7567984672620915  0.9103990050955094  1.0000
  H   H19       1.0  0.5116866678331247  0.8628807572135864  0.06547942194598044  1.0000
  Zn  Zn1       1.0  0.048422394922234886  0.5644953015037324  0.40751352548928654  1.0000
  Zn  Zn2       1.0  0.25998010220519685  0.5644911775763413  0.40750871318474546  1.0000
  C   C24       1.0  0.15324365317255945  0.5611227196356874  0.6707761653869313  1.0000
  C   C25       1.0  0.15516114087664623  0.5678655809540785  0.14424621168891472  1.0000
  C   C26       1.0  0.15237797527297614  0.8279290918621893  0.40133104995977403  1.0000
  C   C27       1.0  0.1560267584295341  0.30105747614423195  0.41369140683577277  1.0000
  O   O2        1.0  0.23522706949270217  0.5702716838894148  0.1979431199045483  1.0000
  O   O3        1.0  0.23374513846844924  0.5587123946544852  0.6170751916274628  1.0000
  O   O4        1.0  0.23304500464089528  0.7741619280045253  0.39949635208990064  1.0000
  O   O5        1.0  0.23592713146833466  0.35482215988536336  0.41552185135366215  1.0000
  O   O6        1.0  0.07247529346485204  0.7741643191976197  0.3995003873144283  1.0000
  O   O7        1.0  0.07317541544485671  0.5587165184338336  0.6170791471263486  1.0000
  O   O8        1.0  0.07465735347001258  0.5702757417526381  0.19794534253872062  1.0000
  O   O9        1.0  0.07535741510332161  0.35482620840550694  0.41552418207034125  1.0000
