data_image0
_chemical_formula_structural       NC5OC5NC4H8C6NCOH7C9H10Zn2C4O8
_chemical_formula_sum              "N3 C34 O10 H25 Zn2"
_cell_length_a       19.189071930511275
_cell_length_b       9.273730183620392
_cell_length_c       10.297187173949778
_cell_angle_alpha    85.71383111101245
_cell_angle_beta     89.95213100257865
_cell_angle_gamma    90.58548044243636

_space_group_name_H-M_alt    "P 1"
_space_group_IT_number       1

loop_
  _space_group_symop_operation_xyz
  'x, y, z'

loop_
  _atom_site_type_symbol
  _atom_site_label
  _atom_site_symmetry_multiplicity
  _atom_site_fract_x
  _atom_site_fract_y
  _atom_site_fract_z
  _atom_site_occupancy
  N   N1        1.0  0.6644718453629758  0.577935041839865  0.5703491443447255  1.0000
  C   C1        1.0  0.6102760099450236  0.6291455108040687  0.5521713511569404  1.0000
  C   C2        1.0  0.5428633696132333  0.6928428004919862  0.5295609061533  1.0000
  C   C3        1.0  0.5337315480630453  0.8004604707801517  0.42836821873842645  1.0000
  C   C4        1.0  0.46824781879290484  0.8624153704903721  0.40653088866081655  1.0000
  C   C5        1.0  0.4112368875970903  0.8166374404696224  0.48453038940997395  1.0000
  O   O1        1.0  0.346602937361692  0.882624815815204  0.4604369205734636  1.0000
  C   C6        1.0  0.281294932363419  0.8164268699110784  0.48396556693259196  1.0000
  C   C7        1.0  0.2249569178239043  0.9025916940404494  0.5144305294283105  1.0000
  C   C8        1.0  0.1588429317260888  0.8409539196187588  0.53711944974518  1.0000
  C   C9        1.0  0.14840436573405943  0.6923490875304563  0.5282353318535811  1.0000
  C   C10       1.0  0.0803430807904873  0.6288734882669882  0.5514409031585099  1.0000
  N   N2        1.0  0.02562580934526071  0.5778413143091321  0.5700975875231926  1.0000
  C   C11       1.0  0.2042678890641453  0.6058416687281842  0.49585174834235457  1.0000
  C   C12       1.0  0.2703732241516743  0.6675232471042545  0.47320657435177954  1.0000
  C   C13       1.0  0.4208555079017276  0.7100223441319669  0.5873441405719887  1.0000
  C   C14       1.0  0.48633028635279485  0.6480628948538427  0.6092428524541801  1.0000
  H   H1        1.0  0.5771759789383748  0.8365561214724987  0.366545738821366  1.0000
  H   H2        1.0  0.4616493828604474  0.9457326621560589  0.3282349847980601  1.0000
  H   H3        1.0  0.2325668353167677  0.017610040551223175  0.521272822729222  1.0000
  H   H4        1.0  0.1159300417955106  0.9091045208984548  0.5613856700892207  1.0000
  H   H5        1.0  0.1966526856045649  0.49099318311254114  0.48743462803445003  1.0000
  H   H6        1.0  0.3125789957867559  0.5996039402743714  0.4455263675989763  1.0000
  H   H7        1.0  0.37813155611781935  0.676344916838965  0.6516259842080949  1.0000
  H   H8        1.0  0.49294083817348444  0.5659093504704071  0.688633168539392  1.0000
  C   C15       1.0  0.8429236078121332  0.15438799979664264  0.5692583878816916  1.0000
  C   C16       1.0  0.8531717038678873  0.23785642940152152  0.45084019652195795  1.0000
  C   C17       1.0  0.868777494722579  0.1730292279554475  0.3358870954030056  1.0000
  C   C18       1.0  0.8763443651102166  0.022572497756261797  0.3402445518500179  1.0000
  C   C19       1.0  0.8653153748770623  0.937934109667732  0.45632695459244516  1.0000
  C   C20       1.0  0.8471806967274025  0.0013773397876917222  0.5711995722087597  1.0000
  N   N3        1.0  0.8805855388784644  0.2627870832809267  0.21772844618178636  1.0000
  C   C21       1.0  0.8632090574991179  0.2218193577581475  0.090130735426597  1.0000
  O   O2        1.0  0.8273894618617036  0.10992501896559004  0.07438129384750569  1.0000
  H   H9        1.0  0.8537704332123974  0.23105829993649496  0.8884646505254563  1.0000
  H   H10       1.0  0.8500719752661794  0.3546834478243415  0.44797745139893275  1.0000
  H   H11       1.0  0.8914874469141093  0.9700628256155128  0.25438970924607185  1.0000
  H   H12       1.0  0.8697998561420466  0.8216413413229814  0.45561144851000823  1.0000
  H   H13       1.0  0.8514975876869602  0.7025876493752603  0.7859877865445769  1.0000
  H   H14       1.0  0.8986782448963375  0.3685567987640046  0.22485072935648256  1.0000
  H   H15       1.0  0.8794148588770528  0.29041763031490153  0.005675168819200498  1.0000
  C   C22       1.0  0.8451440098867117  0.5778304941822587  0.18877562301247153  1.0000
  C   C23       1.0  0.7747207316174833  0.617460447022343  0.18543369000507506  1.0000
  C   C24       1.0  0.7386408092780885  0.6377637980701467  0.06710511489847404  1.0000
  C   C25       1.0  0.7744477336037497  0.6176135189804615  0.9502115062737718  1.0000
  C   C26       1.0  0.8449602833046598  0.5779348302245553  0.9516823000585785  1.0000
  C   C27       1.0  0.879847941290738  0.5583010134481832  0.07135424510059885  1.0000
  C   C28       1.0  0.6624729564920532  0.6806261294260654  0.07292274484311068  1.0000
  C   C29       1.0  0.6133934841150569  0.6226326262487127  0.9725519454122722  1.0000
  C   C30       1.0  0.6349156319445265  0.7817301165020971  0.9618026448360162  1.0000
  H   H16       1.0  0.8722822993042753  0.5625728895483917  0.5176008160958702  1.0000
  H   H17       1.0  0.7475335378299225  0.6327601444326676  0.2755658795090783  1.0000
  H   H18       1.0  0.7480149319556089  0.6324849685791682  0.8576569376484664  1.0000
  H   H19       1.0  0.9341808393375916  0.5277249549874252  0.07320526782589454  1.0000
  H   H20       1.0  0.9781358987975606  0.5029745066257707  0.7472450263412078  1.0000
  H   H21       1.0  0.6379914756559973  0.6944040268772349  0.16904869055403227  1.0000
  H   H22       1.0  0.6366666284396952  0.5575340557052437  0.8978613437109488  1.0000
  H   H23       1.0  0.5591334084498979  0.6031330657484515  0.007663530866270694  1.0000
  H   H24       1.0  0.6712626451090727  0.8132743913011765  0.8805833585559479  1.0000
  H   H25       1.0  0.593233684658865  0.8552164686292898  0.9906293217310079  1.0000
  Zn  Zn1       1.0  0.768693065650858  0.5779041478428377  0.570284037364607  1.0000
  Zn  Zn2       1.0  0.9214045448037623  0.5778604562229037  0.5701732882906784  1.0000
  C   C31       1.0  0.8449645739893135  0.5721698512265225  0.807463433432323  1.0000
  C   C32       1.0  0.845134713184957  0.5835965720236678  0.33299402267854417  1.0000
  C   C33       1.0  0.8463736611077561  0.8412775830024041  0.5656562995709713  1.0000
  C   C34       1.0  0.8437255652314473  0.3144871075970171  0.5748012218606706  1.0000
  O   O3        1.0  0.9030847719802556  0.5855088480215067  0.3813529919421219  1.0000
  O   O4        1.0  0.9029189889898264  0.5702233262928069  0.7590200317620046  1.0000
  O   O5        1.0  0.9040560630960208  0.7875312234417893  0.5637590643466064  1.0000
  O   O6        1.0  0.9019476458392861  0.36820096119066537  0.5766138620227317  1.0000
  O   O7        1.0  0.7881499125024111  0.7875636428915553  0.5638434636635182  1.0000
  O   O8        1.0  0.7870128471183602  0.5702574784098211  0.7591043657891061  1.0000
  O   O9        1.0  0.7871786302786684  0.5855429496694156  0.381435764107686  1.0000
  O   O10       1.0  0.7860415040595501  0.36823505253691224  0.5766967315540485  1.0000
