data_image0
_chemical_formula_structural       NC9NC3OH6C8H10C9H8Zn2C4O8
_chemical_formula_sum              "N2 C33 O9 H24 Zn2"
_cell_length_a       15.78231758774541
_cell_length_b       9.275653711864159
_cell_length_c       9.275155815604963
_cell_angle_alpha    86.23881260367573
_cell_angle_beta     90.4446892459172
_cell_angle_gamma    89.08352321082864

_space_group_name_H-M_alt    "P 1"
_space_group_IT_number       1

loop_
  _space_group_symop_operation_xyz
  'x, y, z'

loop_
  _atom_site_type_symbol
  _atom_site_label
  _atom_site_symmetry_multiplicity
  _atom_site_fract_x
  _atom_site_fract_y
  _atom_site_fract_z
  _atom_site_occupancy
  N   N1        1.0  0.783317528061029  0.5555280674942589  0.4178559420801918  1.0000
  C   C1        1.0  0.7353939086932433  0.4646434285332095  0.44429070970702034  1.0000
  C   C2        1.0  0.6758947774152649  0.35183350340676833  0.47710307072088853  1.0000
  C   C3        1.0  0.6965056949555376  0.2101253031151236  0.5182325540583395  1.0000
  C   C4        1.0  0.6202350126188633  0.1414486710499403  0.5382482493722203  1.0000
  C   C5        1.0  0.557752652927326  0.2463293502627144  0.5078535377360757  1.0000
  C   C6        1.0  0.4647917753485784  0.226939388468048  0.5135748985075285  1.0000
  C   C7        1.0  0.41025053742961776  0.34583321455976357  0.4789355290607981  1.0000
  C   C8        1.0  0.32215076249790753  0.329933978860393  0.4836348547462863  1.0000
  C   C9        1.0  0.2668898300466603  0.45228700406208366  0.4479784829019006  1.0000
  N   N2        1.0  0.22247303565379073  0.5506430383907941  0.41931393130959693  1.0000
  C   C10       1.0  0.28791213136589866  0.19496397961483347  0.5230273607346083  1.0000
  C   C11       1.0  0.3415208083352092  0.07631600460922837  0.5575999498096975  1.0000
  C   C12       1.0  0.4294378474222886  0.09177845070304524  0.5530283105763656  1.0000
  O   O1        1.0  0.5933790697838689  0.3706256612603891  0.47172369244627355  1.0000
  H   H1        1.0  0.7592857082212775  0.16233573060779083  0.532046457821761  1.0000
  H   H2        1.0  0.6122586276749864  0.0285252520184962  0.5710401520006021  1.0000
  H   H3        1.0  0.4361524821394245  0.4508637612090278  0.44827593446196595  1.0000
  H   H4        1.0  0.2198862105027683  0.18149813301544282  0.5270050897205802  1.0000
  H   H5        1.0  0.3148837399740629  0.9720035053142685  0.5880504096189925  1.0000
  H   H6        1.0  0.46915361974927805  0.9978009773796285  0.5804213916684453  1.0000
  C   C13       1.0  0.005272738607198008  0.1296583992190012  0.41724784096024625  1.0000
  C   C14       1.0  0.984920278202952  0.21218391443756346  0.28863879734126713  1.0000
  C   C15       1.0  0.9569476430356939  0.14620926346322838  0.16558239834074695  1.0000
  C   C16       1.0  0.9505844306896215  0.9957259812574695  0.17016651614699607  1.0000
  C   C17       1.0  0.9718412868171042  0.9119790234475744  0.29600097301425343  1.0000
  C   C18       1.0  0.0005260088191403309  0.9765016130251828  0.4199344404178573  1.0000
  C   C19       1.0  0.9366031542875405  0.2360412224658528  0.028188038718134127  1.0000
  C   C20       1.0  0.015533827302494519  0.2562035404761156  0.9357014204707722  1.0000
  H   H7        1.0  0.08291698228218974  0.3950587458418106  0.6172741317227806  1.0000
  H   H8        1.0  0.988963565521802  0.32892418970283344  0.2847692480737589  1.0000
  H   H9        1.0  0.9299507514766479  0.9429006253004623  0.07555997667098979  1.0000
  H   H10       1.0  0.9679195093503844  0.795543954318581  0.29510817878325496  1.0000
  H   H11       1.0  0.00936018943228921  0.6793426667701034  0.6576367357583341  1.0000
  H   H12       1.0  0.8869760343058667  0.18317320951802563  0.9653504519717381  1.0000
  H   H13       1.0  0.9109789389398265  0.34370962267374017  0.053649018255578884  1.0000
  H   H14       1.0  0.06513100188411668  0.3123606679949327  0.9953698033874837  1.0000
  H   H15       1.0  0.0408613370785171  0.14975993772018617  0.9061283165162157  1.0000
  H   H16       1.0  0.9991882199655965  0.3225782196524898  0.8350532052731783  1.0000
  C   C21       1.0  0.0013671960948016255  0.5494526236623289  0.995343202922673  1.0000
  C   C22       1.0  0.934682952000017  0.6204488637100475  0.06316089055007956  1.0000
  C   C23       1.0  0.873620825867011  0.7009649153981137  0.9819281834145208  1.0000
  C   C24       1.0  0.8781094746596285  0.7121691309077178  0.8313972036273076  1.0000
  C   C25       1.0  0.9430928236634902  0.6404171499614586  0.7618630321431814  1.0000
  C   C26       1.0  0.004431542657995944  0.5567073799291871  0.8418390629799695  1.0000
  C   C27       1.0  0.8153155668332562  0.7960729361371659  0.7478568786274753  1.0000
  C   C28       1.0  0.7627369608779979  0.86633088462321  0.677876624317466  1.0000
  C   C29       1.0  0.6989422729477318  0.9515770196139979  0.5929559433100084  1.0000
  H   H17       1.0  0.19870618667281947  0.430929508981631  0.10858496510057479  1.0000
  H   H18       1.0  0.9308983049162692  0.6164942213987887  0.17992710894352282  1.0000
  H   H19       1.0  0.8233112296045229  0.7557166916387501  0.036747133236241  1.0000
  H   H20       1.0  0.944620503254589  0.6471800279917141  0.6447434448303015  1.0000
  H   H21       1.0  0.1361367828791744  0.47174566230714476  0.5684274647758025  1.0000
  H   H22       1.0  0.7161386483910409  0.955528339530089  0.4770272668112123  1.0000
  H   H23       1.0  0.6361182625696634  0.9009329541786828  0.6076098002310455  1.0000
  H   H24       1.0  0.6961736407817908  0.06293946863804135  0.6298067740039812  1.0000
  Zn  Zn1       1.0  0.9100483693203978  0.5541145733480985  0.41828499040048395  1.0000
  Zn  Zn2       1.0  0.09574227451794609  0.5520448651096477  0.41889662777643655  1.0000
  C   C30       1.0  0.0038826353626635318  0.5495918882179373  0.6818150251736712  1.0000
  C   C31       1.0  0.001910026561757983  0.5565693481814239  0.15536674691802263  1.0000
  C   C32       1.0  0.0013980952714196485  0.8163810725527827  0.4136831548828501  1.0000
  C   C33       1.0  0.004394513277130359  0.2897784328350115  0.4234986883460248  1.0000
  O   O2        1.0  0.07256210995571988  0.5581660518794298  0.2093042033556133  1.0000
  O   O3        1.0  0.07416793394434945  0.5464232325323105  0.628341369002167  1.0000
  O   O4        1.0  0.07216069185709606  0.7618588963247682  0.4118229882923039  1.0000
  O   O5        1.0  0.07456928822919456  0.3427303981818106  0.42582247582187643  1.0000
  O   O6        1.0  0.9312212922408968  0.7634290409837297  0.41135914213874614  1.0000
  O   O7        1.0  0.9332285243357695  0.5479951089106339  0.6278774514951305  1.0000
  O   O8        1.0  0.9316226944120827  0.5597378631589249  0.20883855282750496  1.0000
  O   O9        1.0  0.9336298731310834  0.34430220007426127  0.4253569333210703  1.0000
