data_image0
_chemical_formula_structural       NC5NC3OH4C6ClH5C6OCH7Zn2C4O8
_chemical_formula_sum              "N2 C25 O10 H16 Cl1 Zn2"
_cell_length_a       13.84702359539666
_cell_length_b       10.30297070629231
_cell_length_c       9.273891588657152
_cell_angle_alpha    86.0762958320409
_cell_angle_beta     89.66582561404928
_cell_angle_gamma    89.99918224466363

_space_group_name_H-M_alt    "P 1"
_space_group_IT_number       1

loop_
  _space_group_symop_operation_xyz
  'x, y, z'

loop_
  _atom_site_type_symbol
  _atom_site_label
  _atom_site_symmetry_multiplicity
  _atom_site_fract_x
  _atom_site_fract_y
  _atom_site_fract_z
  _atom_site_occupancy
  N   N1        1.0  0.915292256617445  0.4079581238474992  0.40975357075415575  1.0000
  C   C1        1.0  0.8429124910454738  0.4006656543161263  0.472810256458982  1.0000
  C   C2        1.0  0.7527725876026699  0.39158498923819396  0.551329116399466  1.0000
  C   C3        1.0  0.665471956641132  0.40035748240222335  0.47547426138161814  1.0000
  C   C4        1.0  0.5773303380997504  0.3916869116791279  0.5504473903583613  1.0000
  C   C5        1.0  0.48777118627206095  0.4007188811873274  0.4723497050538719  1.0000
  N   N2        1.0  0.41577723435207437  0.40797989310788657  0.4095653922381979  1.0000
  C   C6        1.0  0.5764831558758944  0.3742176740569144  0.7015007385008123  1.0000
  C   C7        1.0  0.6634033039763608  0.36543698180016465  0.7774236210245495  1.0000
  C   C8        1.0  0.7518585402584985  0.37405168658149635  0.702935148072579  1.0000
  O   O1        1.0  0.8384985655766607  0.36525601891499737  0.7789894268964557  1.0000
  H   H1        1.0  0.6661328607610683  0.41389125079409544  0.3584511249020832  1.0000
  H   H2        1.0  0.5087078902515787  0.36739347082081997  0.7605080411620688  1.0000
  H   H3        1.0  0.6619649109296658  0.3519300629796821  0.894215359748898  1.0000
  H   H4        1.0  0.8396221118349989  0.35261479248086064  0.888294788459195  1.0000
  C   C9        1.0  0.16553931820980328  0.026721606869801736  0.4096656776225589  1.0000
  C   C10       1.0  0.26515567870039614  0.023808442824337032  0.43739111521445606  1.0000
  C   C11       1.0  0.31458265834981214  0.9054061638499964  0.4511476365888523  1.0000
  C   C12       1.0  0.2651556781827878  0.7887004736036339  0.4373910474257581  1.0000
  C   C13       1.0  0.16553932820768202  0.7892065493533182  0.40966576013065836  1.0000
  C   C14       1.0  0.11621673285782853  0.9088106002992743  0.39593815867900317  1.0000
  Cl  Cl1       1.0  0.4390272271708977  0.9032704440125636  0.4857832145026306  1.0000
  H   H5        1.0  0.12801558294730442  0.35512205651151135  0.39922118389362327  1.0000
  H   H6        1.0  0.3047755266921688  0.11317507018877193  0.44841807180491333  1.0000
  H   H7        1.0  0.3047754888884102  0.6979738765176224  0.4484179682603871  1.0000
  H   H8        1.0  0.0393895727494451  0.9101289933167973  0.37455542339284764  1.0000
  H   H9        1.0  0.12801557722057377  0.46209409204615187  0.3992214560333083  1.0000
  C   C15       1.0  0.1671214029494266  0.4045257410130751  0.9863897658583568  1.0000
  C   C16       1.0  0.24620814300102545  0.45936525021819286  0.0549337277395312  1.0000
  C   C17       1.0  0.31981701208654156  0.5238990018292367  0.9750963040014963  1.0000
  C   C18       1.0  0.3146023581660333  0.5339185711244632  0.8236576525615171  1.0000
  C   C19       1.0  0.23754451931811316  0.47829304659328215  0.7537707297918326  1.0000
  C   C20       1.0  0.1639572425280929  0.41140233120253034  0.8329415966956395  1.0000
  O   O2        1.0  0.39626638889390914  0.5771399255486382  0.05027416533779405  1.0000
  C   C21       1.0  0.47579171673147785  0.6454689598623083  0.9831678914687411  1.0000
  H   H10       1.0  0.9374151430605878  0.3247766154853602  0.09749338269885244  1.0000
  H   H11       1.0  0.3702333903739172  0.583496664631171  0.758714598657158  1.0000
  H   H12       1.0  0.23676529113972228  0.48498413130226115  0.6366898469276099  1.0000
  H   H13       1.0  0.010773650609642749  0.35256404303904887  0.5575565508019187  1.0000
  H   H14       1.0  0.44986864608190036  0.7333230783125118  0.9187820650454102  1.0000
  H   H15       1.0  0.5160585760150853  0.5810376101505015  0.9127400789392098  1.0000
  H   H16       1.0  0.5252264928161603  0.676503196293294  0.06799284776889714  1.0000
  Zn  Zn1       1.0  0.05972137732969829  0.40796099792716006  0.40970757775645406  1.0000
  Zn  Zn2       1.0  0.2713480456110149  0.40796649164676135  0.4096231486718622  1.0000
  C   C22       1.0  0.16455319805575758  0.40493051611871544  0.672925192826964  1.0000
  C   C23       1.0  0.16651853531287752  0.41099861276205735  0.14640567415265338  1.0000
  C   C24       1.0  0.16555584092541542  0.6450339768897121  0.40392185477535514  1.0000
  C   C25       1.0  0.16551581994253733  0.17089359280782432  0.41540908907997953  1.0000
  O   O3        1.0  0.2466274251376688  0.4131673885525979  0.20007643434177091  1.0000
  O   O4        1.0  0.24506405429952777  0.402764927153296  0.6191899379897685  1.0000
  O   O5        1.0  0.24587261286138262  0.596651520395139  0.4019678397018276  1.0000
  O   O6        1.0  0.24581879476591606  0.2192808037182403  0.417298424583765  1.0000
  O   O7        1.0  0.08525055595702957  0.5966466858551582  0.4020323018657812  1.0000
  O   O8        1.0  0.08444199767808969  0.4027616517960291  0.6192543232992351  1.0000
  O   O9        1.0  0.08600537505776697  0.41316405387661637  0.20013908667482627  1.0000
  O   O10       1.0  0.08519674427814472  0.2192774606342509  0.4173611849839973  1.0000
