data_image0
_chemical_formula_structural       NC9NC3SH6C8NH7C12H10Zn2C4O8
_chemical_formula_sum              "N3 C36 S1 H23 Zn2 O8"
_cell_length_a       16.77567553997237
_cell_length_b       9.274263428431858
_cell_length_c       10.299141136925908
_cell_angle_alpha    85.50362818377448
_cell_angle_beta     90.41956326603899
_cell_angle_gamma    91.51050711931723

_space_group_name_H-M_alt    "P 1"
_space_group_IT_number       1

loop_
  _space_group_symop_operation_xyz
  'x, y, z'

loop_
  _atom_site_type_symbol
  _atom_site_label
  _atom_site_symmetry_multiplicity
  _atom_site_fract_x
  _atom_site_fract_y
  _atom_site_fract_z
  _atom_site_occupancy
  N   N1        1.0  0.75989048491763  0.5999262377940393  0.5735232538798019  1.0000
  C   C1        1.0  0.7054794387959301  0.6547139432612401  0.6151013481710618  1.0000
  C   C2        1.0  0.6379545087478918  0.7227018635110121  0.666696581769828  1.0000
  C   C3        1.0  0.6406980779589804  0.8205368880474662  0.7617139905215375  1.0000
  C   C4        1.0  0.5653573727682096  0.8688232409270238  0.7932063627654854  1.0000
  C   C5        1.0  0.5029771220739913  0.8088011607691021  0.7226135087944154  1.0000
  C   C6        1.0  0.4166621694520027  0.8377536052308897  0.7334522857110353  1.0000
  C   C7        1.0  0.3593024335591498  0.7493538791904819  0.6752010281434245  1.0000
  C   C8        1.0  0.2778235696607637  0.7760731785091173  0.684984123189941  1.0000
  C   C9        1.0  0.2197782990669671  0.6847092763167331  0.6253387705637583  1.0000
  N   N2        1.0  0.1731270053832164  0.6112657916337094  0.5773927198476656  1.0000
  C   C10       1.0  0.25287665424207173  0.8915405496717497  0.7528571828350378  1.0000
  C   C11       1.0  0.3091456748649539  0.9801167984527284  0.8106467194676199  1.0000
  C   C12       1.0  0.3904693693763057  0.9538009598303034  0.8011580606366822  1.0000
  S   S1        1.0  0.5428586502618227  0.6954169641566801  0.6215465547356271  1.0000
  H   H1        1.0  0.6953241326062979  0.8559202998492721  0.8074702943198426  1.0000
  H   H2        1.0  0.5575616435477102  0.9442360807796022  0.8666619131679622  1.0000
  H   H3        1.0  0.3775467848276249  0.6590528391415567  0.6227891258283837  1.0000
  H   H4        1.0  0.19002367317784877  0.9131553502222083  0.7609360273585558  1.0000
  H   H5        1.0  0.2897165334796396  0.06973857013795558  0.8627414271673215  1.0000
  H   H6        1.0  0.4323501052023743  0.02559920660559722  0.8458881290163844  1.0000
  C   C13       1.0  0.9639893697541446  0.18194335517467924  0.575710412700212  1.0000
  C   C14       1.0  0.9536564641142454  0.26505891326084674  0.4569177283755861  1.0000
  C   C15       1.0  0.9511445646965322  0.2001176792042163  0.33927274053184897  1.0000
  C   C16       1.0  0.959551615746265  0.05056715495955809  0.33751658341804186  1.0000
  C   C17       1.0  0.967744409747943  0.9658885314814188  0.4554930912830731  1.0000
  C   C18       1.0  0.9690356924175644  0.029237849474181406  0.5752169206258892  1.0000
  C   C19       1.0  0.9556537986740733  0.9805144153372234  0.21075979404503611  1.0000
  C   C20       1.0  0.8729154545832364  0.939317230916247  0.181119954979047  1.0000
  N   N3        1.0  0.807611845789697  0.9067998229321494  0.15773445056731927  1.0000
  H   H7        1.0  0.032867406649339535  0.2620008314815985  0.8757877578179035  1.0000
  H   H8        1.0  0.9492481119336951  0.38155754957119226  0.4547492970543856  1.0000
  H   H9        1.0  0.9433860775515208  0.26686252106957015  0.24919420024555475  1.0000
  H   H10       1.0  0.9711869590972861  0.8494940022625073  0.4538145655124052  1.0000
  H   H11       1.0  0.01230619392750176  0.7328628414737056  0.7789808852275789  1.0000
  H   H12       1.0  0.9924946217825059  0.8824084108797049  0.216130878733271  1.0000
  H   H13       1.0  0.9791835719730397  0.05599989464550137  0.13015600681109118  1.0000
  C   C21       1.0  0.9664226291439016  0.6057112166645306  0.19406973780013903  1.0000
  C   C22       1.0  0.04980314461460034  0.6235340057718937  0.19302533578350722  1.0000
  C   C23       1.0  0.09217295154110627  0.6324469292289705  0.07536301239472465  1.0000
  C   C24       1.0  0.05003519452326889  0.623296453509754  0.9577619597753326  1.0000
  C   C25       1.0  0.9666024514584416  0.6054699391288534  0.9568576071283084  1.0000
  C   C26       1.0  0.9253098860538971  0.5967847081400969  0.0754621244489162  1.0000
  C   C27       1.0  0.18038115834069246  0.6513034642120381  0.07530290270735929  1.0000
  C   C28       1.0  0.2273653270608611  0.5737158116527006  0.9935698223375933  1.0000
  C   C29       1.0  0.3103860870570363  0.5916438211905968  0.9937510121237925  1.0000
  C   C30       1.0  0.347379515040394  0.6869989020965168  0.07519529055617125  1.0000
  C   C31       1.0  0.30142704091291983  0.7646244333731878  0.15669334465803897  1.0000
  C   C32       1.0  0.21838754051768272  0.7470575554017642  0.156981564946723  1.0000
  H   H14       1.0  0.934345284519449  0.5989287331574207  0.5219420283475837  1.0000
  H   H15       1.0  0.08209285611136474  0.6285377468343761  0.2840774530080765  1.0000
  H   H16       1.0  0.08228566384851055  0.6320800512933362  0.8666330737596821  1.0000
  H   H17       1.0  0.8609964016188196  0.5830415861211669  0.07555177699525206  1.0000
  H   H18       1.0  0.8090811462408917  0.5727370976577099  0.7477943735258044  1.0000
  H   H19       1.0  0.20000135872438762  0.49788484581035086  0.9308501479030808  1.0000
  H   H20       1.0  0.3460776918078967  0.5312462774946529  0.9308957875586112  1.0000
  H   H21       1.0  0.41165028924597213  0.7007364233401323  0.07515403374950515  1.0000
  H   H22       1.0  0.33015031150213203  0.8387901491251673  0.2195070451726795  1.0000
  H   H23       1.0  0.18385871324371017  0.8096585784664634  0.2197421663565402  1.0000
  Zn  Zn1       1.0  0.8791416000270259  0.603194733923959  0.5746474084832579  1.0000
  Zn  Zn2       1.0  0.05387581772905436  0.6079855231414496  0.576279237913204  1.0000
  C   C33       1.0  0.9665324319750198  0.5997681959752141  0.8126776725732023  1.0000
  C   C34       1.0  0.966486904744675  0.6114139336648529  0.3382491180573519  1.0000
  C   C35       1.0  0.9680765013880168  0.8690826425460165  0.570134636498575  1.0000
  C   C36       1.0  0.9649427654002376  0.3420977521379913  0.5807922238278884  1.0000
  O   O1        1.0  0.032819163720989364  0.6151396032015486  0.38725630959681784  1.0000
  O   O2        1.0  0.0328193945898525  0.5996775363733868  0.7649086285764701  1.0000
  O   O3        1.0  0.03406535658630206  0.8171523329896055  0.5690534016920759  1.0000
  O   O4        1.0  0.031573142138099364  0.3976648153016256  0.583111438537316  1.0000
  O   O5        1.0  0.901444215989776  0.8135154401304947  0.5678152072954502  1.0000
  O   O6        1.0  0.9001982642965617  0.5960423768370465  0.7636703639202398  1.0000
  O   O7        1.0  0.9001980328132456  0.6115043938869021  0.3860164834673039  1.0000
  O   O8        1.0  0.8989520111885909  0.3940295956373949  0.5818717097880031  1.0000
