data_image0
_chemical_formula_structural       NC5NC3F3CH3C9H8C6ClH5Zn2C4O8
_chemical_formula_sum              "N2 C28 F3 H16 Cl1 Zn2 O8"
_cell_length_a       13.85151926108384
_cell_length_b       9.275152443626249
_cell_length_c       10.302974078461048
_cell_angle_alpha    85.36323094855369
_cell_angle_beta     89.99987480856441
_cell_angle_gamma    90.57354708821606

_space_group_name_H-M_alt    "P 1"
_space_group_IT_number       1

loop_
  _space_group_symop_operation_xyz
  'x, y, z'

loop_
  _atom_site_type_symbol
  _atom_site_label
  _atom_site_symmetry_multiplicity
  _atom_site_fract_x
  _atom_site_fract_y
  _atom_site_fract_z
  _atom_site_occupancy
  N   N1        1.0  0.9196668634010156  0.5787935215708562  0.5630623714790863  1.0000
  C   C1        1.0  0.8472763764990295  0.569710683937182  0.6193471719303585  1.0000
  C   C2        1.0  0.7572169134765816  0.558410388343094  0.689373515467536  1.0000
  C   C3        1.0  0.6697527947394278  0.5676347731637365  0.6213283405367336  1.0000
  C   C4        1.0  0.5821649238845937  0.5584103751932499  0.6893734974439618  1.0000
  C   C5        1.0  0.4922571244878963  0.5697107000920276  0.6193472565960727  1.0000
  N   N2        1.0  0.41998867753355335  0.5787934836699191  0.5630624665662292  1.0000
  C   C6        1.0  0.5820252174377275  0.5389633011420378  0.8256254739007753  1.0000
  C   C7        1.0  0.6694770208315698  0.5265480895003487  0.8948171952530427  1.0000
  C   C8        1.0  0.6693723744419863  0.5109659314086596  0.04168016382410422  1.0000
  F   F1        1.0  0.7498050720695985  0.43612724956794113  0.08838445343474988  1.0000
  F   F2        1.0  0.5879362572035662  0.4361272189586503  0.08838454295510656  1.0000
  F   F3        1.0  0.6702829267586995  0.6468236131482128  0.08783616131718142  1.0000
  C   C9        1.0  0.7570955436399434  0.5389632058581173  0.8256254918633621  1.0000
  H   H1        1.0  0.6698549502407654  0.5828516392069336  0.5158367302355185  1.0000
  H   H2        1.0  0.5138671683755258  0.5337836215397381  0.8775622527486377  1.0000
  H   H3        1.0  0.825183921352371  0.5337835406148201  0.8775622160389871  1.0000
  C   C10       1.0  0.16698446449647597  0.15516122419332934  0.5643878406919798  1.0000
  C   C11       1.0  0.1321579820715404  0.23790062754874367  0.45409252988843707  1.0000
  C   C12       1.0  0.10630543530930048  0.1724592850163955  0.3417322166766956  1.0000
  C   C13       1.0  0.11487343751020052  0.023117345826595196  0.33744251323892915  1.0000
  C   C14       1.0  0.14781207161434495  0.9386897956955674  0.4468056856141707  1.0000
  C   C15       1.0  0.1726802358792435  0.0024147428392733337  0.5617481815013787  1.0000
  C   C16       1.0  0.08871762516282723  0.9559678402847245  0.22108634245287576  1.0000
  C   C17       1.0  0.06681824432476227  0.8997124888569487  0.12365629277369639  1.0000
  C   C18       1.0  0.04024767441429235  0.8314445705180813  0.00544201479232798  1.0000
  H   H4        1.0  0.3057058583125477  0.23681266308174598  0.8236696273277929  1.0000
  H   H5        1.0  0.12707249054009928  0.35441811361419323  0.4536841519514903  1.0000
  H   H6        1.0  0.08049375232782865  0.23869905211241396  0.25764898226787825  1.0000
  H   H7        1.0  0.15187677950072617  0.8223797657960572  0.44318396358910506  1.0000
  H   H8        1.0  0.26298238839192045  0.7071153372482237  0.7390882179353828  1.0000
  H   H9        1.0  0.05789643218741271  0.7147227408116842  0.017570751033948676  1.0000
  H   H10       1.0  0.9616716740096664  0.8440271374079001  0.9876686435777909  1.0000
  H   H11       1.0  0.08101773276573132  0.8837931055636765  0.9214061936815754  1.0000
  C   C19       1.0  0.16983235502372843  0.5787879862565952  0.18182553414347272  1.0000
  C   C20       1.0  0.15203200810517203  0.4289544736489142  0.1915260091129567  1.0000
  C   C21       1.0  0.14320001094060042  0.3546111657113473  0.07938232903805864  1.0000
  C   C22       1.0  0.15203205183062402  0.42895455512103764  0.9564181098880279  1.0000
  C   C23       1.0  0.16983235206060804  0.57878791179068  0.9443105534488914  1.0000
  C   C24       1.0  0.17864577429907735  0.6529743238742267  0.057669204906130485  1.0000
  Cl  Cl1       1.0  0.12096315202779499  0.167433513203036  0.09300406952938656  1.0000
  H   H12       1.0  0.17653799513954205  0.6352276843320681  0.5054744717410327  1.0000
  H   H13       1.0  0.14495240759260986  0.36936218676727495  0.28590934424972314  1.0000
  H   H14       1.0  0.14495247491620014  0.36936216618243783  0.8707083782399563  1.0000
  H   H15       1.0  0.1923738928056325  0.7685304260006884  0.049259582423296866  1.0000
  H   H16       1.0  0.17653781135006538  0.635227671565988  0.6124468412994095  1.0000
  Zn  Zn1       1.0  0.06404890570103296  0.5787896594153641  0.5630698939699632  1.0000
  Zn  Zn2       1.0  0.2756065386746428  0.5787855791371166  0.5630655661021566  1.0000
  C   C25       1.0  0.16979155067450447  0.5730409270514093  0.8002024360686023  1.0000
  C   C26       1.0  0.1698662161405342  0.5845361316682083  0.3259331457095662  1.0000
  C   C27       1.0  0.17159863849895496  0.8422657649544142  0.5570737035502216  1.0000
  C   C28       1.0  0.16805904447449826  0.31530956055100035  0.5690619528449523  1.0000
  O   O1        1.0  0.25016255710265556  0.5864574197140724  0.37429535379499335  1.0000
  O   O2        1.0  0.2500625507127519  0.5711154538732608  0.7518365729001387  1.0000
  O   O3        1.0  0.2515207147042491  0.7885179153135199  0.5555083965642951  1.0000
  O   O4        1.0  0.2487043209902469  0.36905496859497666  0.5706234327577735  1.0000
  O   O5        1.0  0.09095105119120196  0.7885202699604672  0.5555120273089895  1.0000
  O   O6        1.0  0.08949289884706357  0.571119541737374  0.7518401290224714  1.0000
  O   O7        1.0  0.08959290496325645  0.5864614573070273  0.3742973491908541  1.0000
  O   O8        1.0  0.0881346687775324  0.36905899586973057  0.570625525521341  1.0000
