data_image0
_chemical_formula_structural       NC5NC3F3CH3C6NCH9C6BrH4Zn2C4O8
_chemical_formula_sum              "N3 C26 F3 H16 Br1 Zn2 O8"
_cell_length_a       13.85151926108384
_cell_length_b       9.273386996610926
_cell_length_c       9.276567756262418
_cell_angle_alpha    86.02760264675325
_cell_angle_beta     90.18621463620289
_cell_angle_gamma    89.3985898819531

_space_group_name_H-M_alt    "P 1"
_space_group_IT_number       1

loop_
  _space_group_symop_operation_xyz
  'x, y, z'

loop_
  _atom_site_type_symbol
  _atom_site_label
  _atom_site_symmetry_multiplicity
  _atom_site_fract_x
  _atom_site_fract_y
  _atom_site_fract_z
  _atom_site_occupancy
  N   N1        1.0  0.8946315918288683  0.5632759578764648  0.40806620980465946  1.0000
  C   C1        1.0  0.8224975391163298  0.5548045756941906  0.4705172270814056  1.0000
  C   C2        1.0  0.7327571161715916  0.5442650181566026  0.5482152265493706  1.0000
  C   C3        1.0  0.6450070903728894  0.5527500666068508  0.47271227728105353  1.0000
  C   C4        1.0  0.5577051267179162  0.5442650048098518  0.5482152065223217  1.0000
  C   C5        1.0  0.46747828708163913  0.5548045927708638  0.4705173210762788  1.0000
  N   N2        1.0  0.3949534067042482  0.5632759210069624  0.4080663152683396  1.0000
  C   C6        1.0  0.558151316117167  0.5262982923979109  0.6993986874207494  1.0000
  C   C7        1.0  0.6459355098759003  0.514634665764331  0.776168377994799  1.0000
  C   C8        1.0  0.6463885463118337  0.5006485269183991  0.9391353711485102  1.0000
  F   F1        1.0  0.7279578582379747  0.4263125872563187  0.9908350796440559  1.0000
  F   F2        1.0  0.5660890440016636  0.42631255761842796  0.9908351789426021  1.0000
  F   F3        1.0  0.6455422751392669  0.6370174970143114  0.9906060416132065  1.0000
  C   C9        1.0  0.7332216436693599  0.5262981973027674  0.699398707184814  1.0000
  H   H1        1.0  0.6446534236485009  0.5668207897878519  0.35566040062400384  1.0000
  H   H2        1.0  0.4901859456780007  0.5216830535456258  0.7570311067358135  1.0000
  H   H3        1.0  0.8015026996797402  0.5216829722159282  0.7570310658480575  1.0000
  C   C10       1.0  0.14776734608405256  0.13962890298299382  0.40877427895533036  1.0000
  C   C11       1.0  0.16444386250286638  0.22182797972693935  0.27849461614472504  1.0000
  C   C12       1.0  0.17203046251686382  0.15604848914052782  0.14820689897124395  1.0000
  C   C13       1.0  0.16305244135411087  0.005715106102844874  0.14486769033377847  1.0000
  C   C14       1.0  0.1480762821462922  0.9225486805925976  0.27469479097222527  1.0000
  C   C15       1.0  0.14182696251581284  0.9869120068951633  0.40737070362788197  1.0000
  N   N3        1.0  0.16981724994980318  0.9348728341812763  0.011890054255116357  1.0000
  C   C16       1.0  0.18560328162871725  0.011391621478983973  0.8712834128031038  1.0000
  H   H4        1.0  0.16798988418503077  0.40409148138745765  0.6453309717507762  1.0000
  H   H5        1.0  0.1693642099985678  0.3384565521276133  0.27672687974618304  1.0000
  H   H6        1.0  0.18399881405028418  0.22369162055048575  0.05033435691562783  1.0000
  H   H7        1.0  0.14351468491763963  0.8061253391750548  0.27242175567200255  1.0000
  H   H8        1.0  0.17811298947662432  0.8589886880676806  0.7583116265355343  1.0000
  H   H9        1.0  0.16299822669905661  0.8225349877490084  0.014877914527002375  1.0000
  H   H10       1.0  0.12570191924744134  0.08971988658070139  0.8462487458164862  1.0000
  H   H11       1.0  0.2554803884674548  0.06894564672044123  0.8715159280441075  1.0000
  H   H12       1.0  0.18785707024435394  0.933119224054135  0.7859827622378619  1.0000
  C   C17       1.0  0.1439047207126066  0.5591245820016435  0.9849525928731628  1.0000
  C   C18       1.0  0.05787114015950978  0.5938547564048544  0.05550588530275857  1.0000
  C   C19       1.0  0.9760442711876174  0.6404683485211919  0.9767276646425912  1.0000
  C   C20       1.0  0.9787135445554094  0.6532958908660658  0.8262105712360115  1.0000
  C   C21       1.0  0.06286539777187805  0.6170072972756149  0.7539327978770599  1.0000
  C   C22       1.0  0.14568963956180683  0.5674163928065794  0.8311923797522311  1.0000
  Br  Br1       1.0  0.8667104748678299  0.7182541116720915  0.7188527202950463  1.0000
  H   H13       1.0  0.2776340069373777  0.42808934011970234  0.2760038710840904  1.0000
  H   H14       1.0  0.9107651741356335  0.6679741388464562  0.032999477541596496  1.0000
  H   H15       1.0  0.06266178997797  0.6243765606330973  0.6368701268164085  1.0000
  H   H16       1.0  0.3046418043346491  0.5525194633457444  0.5518223463110489  1.0000
  Zn  Zn1       1.0  0.03901370475275147  0.563272177259931  0.4080745516437321  1.0000
  Zn  Zn2       1.0  0.25057138360377196  0.563268049636404  0.4080697410345455  1.0000
  C   C23       1.0  0.145390364980828  0.5601017967433572  0.6712444452425321  1.0000
  C   C24       1.0  0.1441970211151713  0.5664402517689704  0.1448999857888007  1.0000
  C   C25       1.0  0.14293275795072313  0.8267012191097957  0.4018942541738305  1.0000
  C   C26       1.0  0.146654568269579  0.299839096880417  0.4142502565491184  1.0000
  O   O1        1.0  0.22458020050889282  0.5688875971206833  0.19857797681398814  1.0000
  O   O2        1.0  0.22557457547910476  0.557650226223199  0.617562390105784  1.0000
  O   O3        1.0  0.22358894760095052  0.7729326460951429  0.40006020266014747  1.0000
  O   O4        1.0  0.22656575589651978  0.35360518651170975  0.4160800562092553  1.0000
  O   O5        1.0  0.06301926026572315  0.7729350403875299  0.40006423646308265  1.0000
  O   O6        1.0  0.06500487582529524  0.557654353040606  0.6175663442111643  1.0000
  O   O7        1.0  0.06401049761791633  0.5688916566910216  0.19858019866513588  1.0000
  O   O8        1.0  0.06599605330179092  0.3536092368219823  0.41608238610483284  1.0000
