data_image0
_chemical_formula_structural       NC5OC5NC4H8C7NH5C6NH7Zn2C4O8
_chemical_formula_sum              "N4 C31 O9 H20 Zn2"
_cell_length_a       19.189071930511275
_cell_length_b       9.275154477615127
_cell_length_c       9.274774538082514
_cell_angle_alpha    85.29330631285735
_cell_angle_beta     90.32765294797488
_cell_angle_gamma    89.42495848434854

_space_group_name_H-M_alt    "P 1"
_space_group_IT_number       1

loop_
  _space_group_symop_operation_xyz
  'x, y, z'

loop_
  _atom_site_type_symbol
  _atom_site_label
  _atom_site_symmetry_multiplicity
  _atom_site_fract_x
  _atom_site_fract_y
  _atom_site_fract_z
  _atom_site_occupancy
  N   N1        1.0  0.6439338479688723  0.5915216590178072  0.413869041358649  1.0000
  C   C1        1.0  0.5891721245274776  0.642896387734502  0.39374571778197165  1.0000
  C   C2        1.0  0.5210556127260436  0.7067979921179499  0.3687153239368057  1.0000
  C   C3        1.0  0.5105099122362354  0.8153784520363991  0.2564409935753471  1.0000
  C   C4        1.0  0.44434211685755653  0.87753056158368  0.23226707614779762  1.0000
  C   C5        1.0  0.38805728924510824  0.8310003764873483  0.3188609480658322  1.0000
  O   O1        1.0  0.3226917713638349  0.8972059822726995  0.2921861331250213  1.0000
  C   C6        1.0  0.2581153796968849  0.8307954010678426  0.31823312333459364  1.0000
  C   C7        1.0  0.20104297344843192  0.9166380433590481  0.3522021460985987  1.0000
  C   C8        1.0  0.13561298804903377  0.8547946233326684  0.3773226425857761  1.0000
  C   C9        1.0  0.1265967114447643  0.7063174101844585  0.36724189116067096  1.0000
  C   C10       1.0  0.05923925157247301  0.6426316009447715  0.39293379350289936  1.0000
  N   N2        1.0  0.005087831760466103  0.5914304233973375  0.4135894250964611  1.0000
  C   C11       1.0  0.1831911352690682  0.6201510774971477  0.3311407653027798  1.0000
  C   C12       1.0  0.24861219710411134  0.6820378606299617  0.30606893367884647  1.0000
  C   C13       1.0  0.3990857610371074  0.723406323667  0.43293772494385396  1.0000
  C   C14       1.0  0.46524486904348505  0.6612490639822544  0.4571798320819702  1.0000
  H   H1        1.0  0.5533806719479814  0.8520703920823063  0.18780634064189305  1.0000
  H   H2        1.0  0.436649228200201  0.9615927796054046  0.14539703432128692  1.0000
  H   H3        1.0  0.2075519351844252  0.031557946784521736  0.35996685513231225  1.0000
  H   H4        1.0  0.0921198515404675  0.9226887289535103  0.4043792653641054  1.0000
  H   H5        1.0  0.17666960861709535  0.5054164288433807  0.3216266391312974  1.0000
  H   H6        1.0  0.2913837754864242  0.6144084583865745  0.27521964569167867  1.0000
  H   H7        1.0  0.3569205919910929  0.6891078352004849  0.50430819276653  1.0000
  H   H8        1.0  0.4729423907582475  0.5783395459346525  0.5452674304426335  1.0000
  C   C15       1.0  0.8265257813405498  0.1681007874038507  0.4120576443344217  1.0000
  C   C16       1.0  0.8070166521808793  0.25239193691117445  0.2848280812087056  1.0000
  C   C17       1.0  0.7818593658033494  0.1874083561084638  0.16434323106889037  1.0000
  C   C18       1.0  0.7757986730032119  0.03724306312036195  0.169669063702647  1.0000
  C   C19       1.0  0.7959450070264487  0.9517693140289372  0.2939976925757797  1.0000
  C   C20       1.0  0.8225026819008119  0.014840151494089893  0.4154132803594319  1.0000
  C   C21       1.0  0.7614185173427371  0.27529489709841215  0.035580759276516716  1.0000
  N   N3        1.0  0.7449897369336677  0.3459394815754425  0.9320887138362504  1.0000
  H   H9        1.0  0.8410979844334295  0.2416859086051093  0.7662935651272536  1.0000
  H   H10       1.0  0.8098498247544623  0.36938787966129305  0.2805438053469586  1.0000
  H   H11       1.0  0.7560923944893267  0.9859272951342819  0.07706917682503911  1.0000
  H   H12       1.0  0.7922852764136731  0.835303747139046  0.2938735188705577  1.0000
  H   H13       1.0  0.8352682857893248  0.7140014830287262  0.6527590992045755  1.0000
  C   C22       1.0  0.8232460616556492  0.5951582280778297  0.9899347074343052  1.0000
  C   C23       1.0  0.8722211785941958  0.6802253447728893  0.056970147953757655  1.0000
  C   C24       1.0  0.9243791230320506  0.7534154942131643  0.9764546766406639  1.0000
  C   C25       1.0  0.9279856228794346  0.7418704234458522  0.8274287623267735  1.0000
  C   C26       1.0  0.8792189948743685  0.6599792505684647  0.7587031724722904  1.0000
  C   C27       1.0  0.8257823916658984  0.5877826491179976  0.8375361704532813  1.0000
  N   N4        1.0  0.9741552125312737  0.838281831965986  0.04649394796381423  1.0000
  H   H14       1.0  0.7204190889697987  0.3133504310359019  0.11481878321774629  1.0000
  H   H15       1.0  0.8709342780505254  0.6870634224202783  0.17301834634775126  1.0000
  H   H16       1.0  0.9682593495284745  0.7975630978455899  0.7640873501723049  1.0000
  H   H17       1.0  0.8823455590441913  0.6559681072566645  0.6425118238803051  1.0000
  H   H18       1.0  0.7543637172514553  0.4023647908492232  0.5707754968358913  1.0000
  H   H19       1.0  0.9720886006213052  0.8473234194426648  0.15790126716492026  1.0000
  H   H20       1.0  0.013428479545709365  0.8928410053273341  0.9874375062747625  1.0000
  Zn  Zn1       1.0  0.7481551383095404  0.5914914117767089  0.4137966627475262  1.0000
  Zn  Zn2       1.0  0.9008666499359954  0.5914488178938617  0.41367355693644314  1.0000
  C   C28       1.0  0.8253287094189574  0.5834332838668679  0.6772985864447352  1.0000
  C   C29       1.0  0.823694738212298  0.5995087632131323  0.15017178075257376  1.0000
  C   C30       1.0  0.8232423341885944  0.8548384126210342  0.409027989904839  1.0000
  C   C31       1.0  0.8257810697931465  0.32810190164015873  0.4184424474122346  1.0000
  O   O2        1.0  0.8817985708475893  0.6009463885898985  0.20390206340197747  1.0000
  O   O3        1.0  0.883129384528813  0.5819622466984918  0.6234744495820985  1.0000
  O   O4        1.0  0.8814438333977428  0.801125307713759  0.40684405138778224  1.0000
  O   O5        1.0  0.8834840694957615  0.3817833388442651  0.4205323534704175  1.0000
  O   O6        1.0  0.7655376666367998  0.8011568908424762  0.40693786624797657  1.0000
  O   O7        1.0  0.7672232093044099  0.5819955626621864  0.6235681943569527  1.0000
  O   O8        1.0  0.7658923907161094  0.600979669411317  0.2039940728526477  1.0000
  O   O9        1.0  0.7675778897342047  0.38181660841222054  0.4206244710813898  1.0000
