data_image0
_chemical_formula_structural       NC9NC3SH6C8H6C8NH11Zn2C4O8
_chemical_formula_sum              "N3 C32 S1 H23 Zn2 O8"
_cell_length_a       16.77567553997237
_cell_length_b       9.27514070457351
_cell_length_c       9.275652972338538
_cell_angle_alpha    86.0727604772434
_cell_angle_beta     90.8258093540976
_cell_angle_gamma    91.48491386358626

_space_group_name_H-M_alt    "P 1"
_space_group_IT_number       1

loop_
  _space_group_symop_operation_xyz
  'x, y, z'

loop_
  _atom_site_type_symbol
  _atom_site_label
  _atom_site_symmetry_multiplicity
  _atom_site_fract_x
  _atom_site_fract_y
  _atom_site_fract_z
  _atom_site_occupancy
  N   N1        1.0  0.7531664603951317  0.5882636742962322  0.42176080981126396  1.0000
  C   C1        1.0  0.6989285399582902  0.6433586152021533  0.4680768438827967  1.0000
  C   C2        1.0  0.631618445509689  0.7117277909390027  0.5255514999846767  1.0000
  C   C3        1.0  0.6347638243210593  0.8102737571768289  0.6313115463776495  1.0000
  C   C4        1.0  0.5595527189178142  0.8587906298317458  0.6664136106002062  1.0000
  C   C5        1.0  0.4968710904614941  0.7982362751260703  0.5878788165436284  1.0000
  C   C6        1.0  0.4105979621680503  0.8272640815827808  0.5999981872342879  1.0000
  C   C7        1.0  0.3529982999871279  0.7384376693786396  0.5350729412077752  1.0000
  C   C8        1.0  0.2715570545143481  0.7652248013608256  0.5460137212957097  1.0000
  C   C9        1.0  0.21326630688879716  0.6734242749331747  0.47953202438907394  1.0000
  N   N2        1.0  0.16641768603321058  0.5996298090087495  0.42609056170288095  1.0000
  C   C10       1.0  0.2468868857739164  0.8811853186720319  0.6217018136816906  1.0000
  C   C11       1.0  0.30339373320170937  0.9701845887340927  0.6861151580877813  1.0000
  C   C12       1.0  0.38468103179137203  0.9438030881520107  0.6755024140401422  1.0000
  S   S1        1.0  0.536327327678711  0.6840988775699355  0.4753563676778805  1.0000
  H   H1        1.0  0.6895860173067103  0.8460033096105845  0.6822046749441557  1.0000
  H   H2        1.0  0.5520676683183647  0.934753151924026  0.7481733368600739  1.0000
  H   H3        1.0  0.37102920234847675  0.6477561859389345  0.4766227091249317  1.0000
  H   H4        1.0  0.18406507128502966  0.9028562802375785  0.6307352754053788  1.0000
  H   H5        1.0  0.2841767788685347  0.0601845441876132  0.7442112401828549  1.0000
  H   H6        1.0  0.4267451194731187  0.01592771631303691  0.7253694622603024  1.0000
  C   C13       1.0  0.9573693226582416  0.17043263920250998  0.4228923038992535  1.0000
  C   C14       1.0  0.9681993572645409  0.25329352540963423  0.2915232788320685  1.0000
  C   C15       1.0  0.9860051755370359  0.18762432196062018  0.16539337540332183  1.0000
  C   C16       1.0  0.9934094367622485  0.03791637052360831  0.16821110764654756  1.0000
  C   C17       1.0  0.9815481539520537  0.9534304914669319  0.29720704059439274  1.0000
  C   C18       1.0  0.9622224236934641  0.01745006812138361  0.4249716568669277  1.0000
  C   C19       1.0  0.012286111339069313  0.9704987935468449  0.038063526899451805  1.0000
  C   C20       1.0  0.028091293108029262  0.9140381804751095  0.9291021050187931  1.0000
  H   H7        1.0  0.9719103241589379  0.24970523009755108  0.7772098983581142  1.0000
  H   H8        1.0  0.9647518678427807  0.369994068132645  0.2870722745835923  1.0000
  H   H9        1.0  0.9947796433777445  0.2539405338959235  0.06584107061046263  1.0000
  H   H10       1.0  0.9855670950956703  0.8369326076416348  0.29707109282241784  1.0000
  H   H11       1.0  0.9689529785256089  0.7207039440800437  0.6636643890723076  1.0000
  H   H12       1.0  0.041964848375272576  0.8644759227177642  0.8334568580352051  1.0000
  C   C21       1.0  0.9580045956586695  0.5910816686683622  0.0006357263193976791  1.0000
  C   C22       1.0  0.9068235537473668  0.683997586895404  0.0664725353474791  1.0000
  C   C23       1.0  0.8619869064345  0.7855023792863527  0.9835487980862249  1.0000
  C   C24       1.0  0.867246222494768  0.7926722158605547  0.8328353525146119  1.0000
  C   C25       1.0  0.9166719170761739  0.6997722060576841  0.7655722283985806  1.0000
  C   C26       1.0  0.96158719459198  0.5968010482818471  0.8472281896592497  1.0000
  C   C27       1.0  0.8065855419469168  0.8826297488674422  0.05574835251512433  1.0000
  C   C28       1.0  0.724192608094481  0.8099089386161551  0.07550369353516473  1.0000
  N   N3        1.0  0.6706679715672983  0.9058846740841222  0.14338419474454045  1.0000
  H   H13       1.0  0.015224689527318702  0.37841477127906886  0.2973293313472638  1.0000
  H   H14       1.0  0.9030075555849215  0.6798807665605489  0.18325047504477676  1.0000
  H   H15       1.0  0.8323329876441188  0.8693817129838575  0.7670723886489766  1.0000
  H   H16       1.0  0.9181470696712964  0.7060057729743849  0.6485826440940743  1.0000
  H   H17       1.0  0.07018455067145846  0.4677169130039452  0.5775695315133511  1.0000
  H   H18       1.0  0.831703061155019  0.9086577988897837  0.16278650875145703  1.0000
  H   H19       1.0  0.8007982914181293  0.9865767502148172  0.989627576460923  1.0000
  H   H20       1.0  0.6991236964782787  0.7850408145209764  0.9680516672909837  1.0000
  H   H21       1.0  0.7292297187093091  0.706770910916146  0.14350177273978737  1.0000
  H   H22       1.0  0.6140690958920461  0.8559047330421645  0.14707802972280093  1.0000
  H   H23       1.0  0.6893817898744892  0.913616760418215  0.2507174823703828  1.0000
  Zn  Zn1       1.0  0.8724218534712127  0.5915399010213915  0.42301860617663367  1.0000
  Zn  Zn2       1.0  0.047162270675791484  0.5963418971148255  0.42484457408262855  1.0000
  C   C29       1.0  0.9608752874884263  0.5899744799616687  0.6871899701869777  1.0000
  C   C30       1.0  0.9587107558434952  0.5979091912725651  0.16067337595891984  1.0000
  C   C31       1.0  0.961276687967285  0.8573068243994273  0.4188344176631813  1.0000
  C   C32       1.0  0.9583092861351925  0.33057511298271014  0.4290290004566659  1.0000
  O   O1        1.0  0.02526079126392955  0.6020166108539569  0.21507640299843223  1.0000
  O   O2        1.0  0.026949177518462483  0.5895105735089803  0.6341723929209175  1.0000
  O   O3        1.0  0.027272425892265865  0.8053848080812838  0.417473379937809  1.0000
  O   O4        1.0  0.024937482864802563  0.38614238422978775  0.4317753073038453  1.0000
  O   O5        1.0  0.8946465816518503  0.8017394122692627  0.4160878723247248  1.0000
  O   O6        1.0  0.8943233428771392  0.5858669099118894  0.6327868127031926  1.0000
  O   O7        1.0  0.8926349490537951  0.5983728852929697  0.21368908959835364  1.0000
  O   O8        1.0  0.8923116410496399  0.3824986490834996  0.4303881019507711  1.0000
