data_image0
_chemical_formula_structural       NC6NSH2C2NC2NH4C6H6Zn2C4O8
_chemical_formula_sum              "N4 C20 S1 H12 Zn2 O8"
_cell_length_a       14.474562073675546
_cell_length_b       10.619346103145524
_cell_length_c       10.302890899224296
_cell_angle_alpha    85.6614336499473
_cell_angle_beta     90.00590449567315
_cell_angle_gamma    89.95410760518658

_space_group_name_H-M_alt    "P 1"
_space_group_IT_number       1

loop_
  _space_group_symop_operation_xyz
  'x, y, z'

loop_
  _atom_site_type_symbol
  _atom_site_label
  _atom_site_symmetry_multiplicity
  _atom_site_fract_x
  _atom_site_fract_y
  _atom_site_fract_z
  _atom_site_occupancy
  N   N1        1.0  0.8690366601286947  0.3778833602723872  0.5700296147633075  1.0000
  C   C1        1.0  0.7910143430600518  0.3560620736149744  0.562110276144766  1.0000
  C   C2        1.0  0.6941861672781839  0.3289838601059915  0.5522829444927992  1.0000
  C   C3        1.0  0.6568773928514438  0.2179970123428705  0.5120030447850452  1.0000
  C   C4        1.0  0.5601613059322651  0.21799713370289853  0.5120027347939902  1.0000
  C   C5        1.0  0.5227279916817704  0.3289839912404733  0.5522824725044567  1.0000
  C   C6        1.0  0.42586940919087507  0.35606228216450697  0.5621100385414992  1.0000
  N   N2        1.0  0.3478226174645017  0.3778834620861541  0.570029513120716  1.0000
  S   S1        1.0  0.6084018255098617  0.4274510901256485  0.5880190173267441  1.0000
  H   H1        1.0  0.6980080687410717  0.13950842134131822  0.4835177538631486  1.0000
  H   H2        1.0  0.5191187183047038  0.13950869962116694  0.4835170964680911  1.0000
  C   C7        1.0  0.10864338859099429  0.00803430757529711  0.5694922320317386  1.0000
  C   C8        1.0  0.14824094659590442  0.9474373826942526  0.46677819943734283  1.0000
  N   N3        1.0  0.14702666999416913  0.8193112079217293  0.46992777363117355  1.0000
  C   C9        1.0  0.10822476334031125  0.747722799619124  0.5705781085603867  1.0000
  C   C10       1.0  0.06860010771926484  0.8083515741768695  0.6733634696962042  1.0000
  N   N4        1.0  0.06981687342957296  0.9364738467188434  0.6702071869296455  1.0000
  H   H3        1.0  0.14794723611486701  0.31655784693979355  0.46752797985036865  1.0000
  H   H4        1.0  0.17980561627935465  0.0009320256151170617  0.38490076220395697  1.0000
  H   H5        1.0  0.14982214179490744  0.4577853857872655  0.4626633424157167  1.0000
  H   H6        1.0  0.03703392504477421  0.7548450268815983  0.7552443719052504  1.0000
  C   C11       1.0  0.10840553806358841  0.3777531895262769  0.1887994069018604  1.0000
  C   C12       1.0  0.1372093362343918  0.5043938728176269  0.1778717342715182  1.0000
  C   C13       1.0  0.15150066295813702  0.5672285597134659  0.05557065730455491  1.0000
  C   C14       1.0  0.13728385259608086  0.504721935919946  0.942839141303797  1.0000
  C   C15       1.0  0.1084625994060788  0.3780039375349646  0.9512709691532113  1.0000
  C   C16       1.0  0.09417441708632057  0.31518343424925854  0.07479071177526708  1.0000
  H   H7        1.0  0.09749217972224544  0.32977133134653286  0.5202346443744831  1.0000
  H   H8        1.0  0.148731347171853  0.5550522809745464  0.26375710334185404  1.0000
  H   H9        1.0  0.17369816108835634  0.6648236676169503  0.0481206459216632  1.0000
  H   H10       1.0  0.1488566546830425  0.5556042128717313  0.8491721032249964  1.0000
  H   H11       1.0  0.05417627956127989  0.13932597556259724  0.7599884692997776  1.0000
  H   H12       1.0  0.07196479182218862  0.2175349487974367  0.08228742200551786  1.0000
  Zn  Zn1       1.0  0.0072039514702928464  0.377880009284471  0.5700370834233554  1.0000
  Zn  Zn2       1.0  0.20965532907964185  0.3778764725152347  0.5700326838918739  1.0000
  C   C17       1.0  0.10845258164199587  0.37293910920853085  0.8071401424180785  1.0000
  C   C18       1.0  0.10840890878080445  0.3828189617169961  0.33292975460397334  1.0000
  C   C19       1.0  0.10829872899017556  0.6079042124350688  0.5651995096308401  1.0000
  C   C20       1.0  0.10856269321172807  0.14785234534319633  0.5748704543857579  1.0000
  O   O1        1.0  0.1852392858526699  0.38451224435617365  0.38129953827416385  1.0000
  O   O2        1.0  0.18527811627941482  0.37124219199198744  0.7587666444949325  1.0000
  O   O3        1.0  0.1851528427233997  0.5609794848486749  0.5633978736941385  1.0000
  O   O4        1.0  0.1853644903133615  0.19477496047828313  0.5766682117490118  1.0000
  O   O5        1.0  0.03149472114985262  0.5609815213239984  0.5634015555608918  1.0000
  O   O6        1.0  0.031619993840043874  0.3712457416171485  0.7587702593618149  1.0000
  O   O7        1.0  0.03158116338279737  0.3845157495791689  0.3813015922210259  1.0000
  O   O8        1.0  0.03170636785209191  0.19477845672505742  0.5766703630164949  1.0000
