data_image0
_chemical_formula_structural       NC3SC3NH2C12H9C12H8Zn2C4O8
_chemical_formula_sum              "N2 C34 S1 H19 Zn2 O8"
_cell_length_a       14.05945120258396
_cell_length_b       14.994057918209652
_cell_length_c       14.994061290378351
_cell_angle_alpha    85.56107452551403
_cell_angle_beta     89.93957803514783
_cell_angle_gamma    90.05308548376159

_space_group_name_H-M_alt    "P 1"
_space_group_IT_number       1

loop_
  _space_group_symop_operation_xyz
  'x, y, z'

loop_
  _atom_site_type_symbol
  _atom_site_label
  _atom_site_symmetry_multiplicity
  _atom_site_fract_x
  _atom_site_fract_y
  _atom_site_fract_z
  _atom_site_occupancy
  N   N1        1.0  0.895613088341404  0.9773329030600654  0.01521293211132635  1.0000
  C   C1        1.0  0.8194629267197099  0.9540287865224367  0.03502211658541021  1.0000
  C   C2        1.0  0.724867446762693  0.9250836361842303  0.059626297470378176  1.0000
  C   C3        1.0  0.7066243322293851  0.852800852893316  0.12106845922908693  1.0000
  S   S1        1.0  0.5879043069716856  0.8411312873394304  0.13098742828045085  1.0000
  C   C4        1.0  0.5599633137453149  0.9274592075046955  0.05760642625077439  1.0000
  C   C5        1.0  0.6429495385672189  0.9671653119300043  0.023855564528775134  1.0000
  C   C6        1.0  0.4650312647357572  0.9553787012556991  0.03387421943109126  1.0000
  N   N2        1.0  0.3885358916371745  0.9778760438103454  0.014751033931984956  1.0000
  H   H1        1.0  0.7594119952205777  0.8112147645439736  0.1564179686057321  1.0000
  H   H2        1.0  0.6441978214203149  0.024426846388077905  0.9751819915065305  1.0000
  C   C7        1.0  0.14211867947507995  0.7156363383121335  0.014972752507369513  1.0000
  C   C8        1.0  0.19706087154630403  0.6632662503172138  0.07728208675517079  1.0000
  C   C9        1.0  0.1970132796845172  0.5700425503300267  0.07731905054092081  1.0000
  C   C10       1.0  0.142104198742814  0.5271353889406493  0.015020258564324986  1.0000
  C   C11       1.0  0.08721569105041627  0.5796047478865108  0.9527134175982453  1.0000
  C   C12       1.0  0.08720068146596248  0.6728284081386361  0.9527237439208709  1.0000
  C   C13       1.0  0.14208193362032828  0.42806086360270845  0.0150276042266646  1.0000
  C   C14       1.0  0.14355821117235146  0.3866325611314866  0.9340795986893234  1.0000
  C   C15       1.0  0.14357698854801942  0.2934081918560356  0.9340788368987276  1.0000
  C   C16       1.0  0.14203944425822912  0.23956575656179174  0.014998930183977464  1.0000
  C   C17       1.0  0.14052277579719696  0.2808920339384745  0.09598042570622434  1.0000
  C   C18       1.0  0.14058430088808338  0.3741128683204314  0.09598131854887526  1.0000
  H   H3        1.0  0.08664932184081801  0.9332621342465466  0.951897704848135  1.0000
  H   H4        1.0  0.24035732791005482  0.6943002702621215  0.12595525062800217  1.0000
  H   H5        1.0  0.2410067148960542  0.5315579572672746  0.1253993721698441  1.0000
  H   H6        1.0  0.04320749808394875  0.5484906637997535  0.904641091683585  1.0000
  H   H7        1.0  0.043912384808287845  0.7112949569183263  0.9040367866322196  1.0000
  H   H8        1.0  0.14599217677843535  0.42634056075485066  0.8706478255959692  1.0000
  H   H9        1.0  0.14504132430024885  0.263587238526292  0.8705911305156977  1.0000
  H   H10       1.0  0.13904302938403856  0.24121396732023898  0.15946212857195752  1.0000
  H   H11       1.0  0.13816701233389872  0.40400300531279154  0.15941077926403546  1.0000
  C   C19       1.0  0.14211926823021104  0.9776124332337601  0.753019109163445  1.0000
  C   C20       1.0  0.19399586553395715  0.9130136263291712  0.7103722900076352  1.0000
  C   C21       1.0  0.19394645733738103  0.9129786952025362  0.6171542154698665  1.0000
  C   C22       1.0  0.14210253839131837  0.9775655927629091  0.5645255022569922  1.0000
  C   C23       1.0  0.09027940784646815  0.042159660774108154  0.6072721491221731  1.0000
  C   C24       1.0  0.0902639541350092  0.042149893431058724  0.700497308545377  1.0000
  C   C25       1.0  0.1420799033599316  0.9775591716548107  0.4654521569724663  1.0000
  C   C26       1.0  0.14746010747513494  0.058364416433200485  0.41149815131462364  1.0000
  C   C27       1.0  0.14747890553846493  0.05836438247402435  0.3182736816487335  1.0000
  C   C28       1.0  0.14203883727295996  0.9775896505017704  0.2769526079880371  1.0000
  C   C29       1.0  0.13661676517553278  0.8967527278256868  0.33080966427144554  1.0000
  C   C30       1.0  0.13667812807862534  0.8967492321233655  0.424030714274507  1.0000
  H   H12       1.0  0.23489713146590052  0.862535804401145  0.7490021041323547  1.0000
  H   H13       1.0  0.23557268444125445  0.8630633986370682  0.5861747802164132  1.0000
  H   H14       1.0  0.04863822821220065  0.09206763657757744  0.5686541506802503  1.0000
  H   H15       1.0  0.04937147276944498  0.09264114128704092  0.7313659534264805  1.0000
  H   H16       1.0  0.15295174171923054  0.12162957312445656  0.44139269245258744  1.0000
  H   H17       1.0  0.15200473786801405  0.12172689340719585  0.2786292287761687  1.0000
  H   H18       1.0  0.13207581517063427  0.8333968062494986  0.30095415180716745  1.0000
  H   H19       1.0  0.13120322536422502  0.8334856268161841  0.46373396931869615  1.0000
  Zn  Zn1       1.0  0.03785996924795976  0.9774872581993811  0.015084793349875447  1.0000
  Zn  Zn2       1.0  0.24628902071230563  0.9777144057902257  0.01488649203877612  1.0000
  C   C31       1.0  0.1420524476984799  0.9740400912387475  0.17791775770657858  1.0000
  C   C32       1.0  0.14209881811681901  0.9811627008203597  0.8520536131310621  1.0000
  C   C33       1.0  0.1420500495838588  0.1405320996020434  0.011439104627563812  1.0000
  C   C34       1.0  0.1421011452640173  0.8146696205817759  0.01853231378500164  1.0000
  O   O1        1.0  0.22118969425431947  0.9824365124969978  0.8852152428453672  1.0000
  O   O2        1.0  0.2211543990436935  0.9729380063525055  0.14460536505271748  1.0000
  O   O3        1.0  0.22115139611804233  0.10738240748235532  0.010172675888154398  1.0000
  O   O4        1.0  0.22119262606655843  0.8479921176741397  0.019647865190126068  1.0000
  O   O5        1.0  0.06295629276710168  0.10720954623892447  0.010323420261503456  1.0000
  O   O6        1.0  0.06295929553357138  0.9727662169078195  0.14475606191411972  1.0000
  O   O7        1.0  0.06299459097682703  0.9822646920119643  0.8853648671609007  1.0000
  O   O8        1.0  0.06299752277587323  0.8478202908055718  0.01979755638844194  1.0000
