data_image0
_chemical_formula_structural       NC5NC3F3CH3C6BrH5C6H6Zn2C4O8
_chemical_formula_sum              "N2 C25 F3 H14 Br1 Zn2 O8"
_cell_length_a       13.85151926108384
_cell_length_b       9.276564384272257
_cell_length_c       10.681121600428286
_cell_angle_alpha    85.5120417802204
_cell_angle_beta     89.99987223705872
_cell_angle_gamma    90.58593481197379

_space_group_name_H-M_alt    "P 1"
_space_group_IT_number       1

loop_
  _space_group_symop_operation_xyz
  'x, y, z'

loop_
  _atom_site_type_symbol
  _atom_site_label
  _atom_site_symmetry_multiplicity
  _atom_site_fract_x
  _atom_site_fract_y
  _atom_site_fract_z
  _atom_site_occupancy
  N   N1        1.0  0.9198932450622659  0.5782294014580915  0.6175061269355914  1.0000
  C   C1        1.0  0.8475014542119692  0.5691498141726499  0.6717777103387446  1.0000
  C   C2        1.0  0.757440368898994  0.5578535624575345  0.739299323990563  1.0000
  C   C3        1.0  0.66997757478655  0.5670746451541868  0.6736840430723192  1.0000
  C   C4        1.0  0.5823883793051218  0.557853549312386  0.7392993065753374  1.0000
  C   C5        1.0  0.49248220220314903  0.5691498303217337  0.6717777920435515  1.0000
  N   N2        1.0  0.4202150591893672  0.5782293635707028  0.6175062185705957  1.0000
  C   C6        1.0  0.5822458804873518  0.5384134361371622  0.8706835146521907  1.0000
  C   C7        1.0  0.6696959017843759  0.5260026665553874  0.937397532535607  1.0000
  C   C8        1.0  0.6695890167487303  0.5104260898200382  0.0790258106435292  1.0000
  F   F1        1.0  0.7500109840304586  0.43561414644733465  0.12390732143794868  1.0000
  F   F2        1.0  0.5881421691600348  0.4356141158489868  0.12390740771974385  1.0000
  F   F3        1.0  0.6705190440169548  0.6462352456408114  0.12385504973970085  1.0000
  C   C9        1.0  0.7573162066759072  0.5384133408872809  0.8706835317633028  1.0000
  H   H1        1.0  0.670081915214046  0.5822860645956662  0.571961611815162  1.0000
  H   H2        1.0  0.5140870871728542  0.5332356121602027  0.9207698402277616  1.0000
  H   H3        1.0  0.8254038401380993  0.5332355312641883  0.9207698046346986  1.0000
  C   C10       1.0  0.16715011449227626  0.15474843289038787  0.6178263859573304  1.0000
  C   C11       1.0  0.1547783008122301  0.23824771865469144  0.5033695434781882  1.0000
  C   C12       1.0  0.15139114278325883  0.17325884672972824  0.3899817858706789  1.0000
  C   C13       1.0  0.16035434884834143  0.02385168604905896  0.3888978711292348  1.0000
  C   C14       1.0  0.17102541182166173  0.9386590711993469  0.5016239327448431  1.0000
  C   C15       1.0  0.1729673441798867  0.0016992353356908504  0.6171967122691687  1.0000
  Br  Br1       1.0  0.15643042420537734  0.9354939078187446  0.23331005658033344  1.0000
  H   H4        1.0  0.13884039831104578  0.4173008389776669  0.8214208983798057  1.0000
  H   H5        1.0  0.15001405388792582  0.3549041112572642  0.5012256379456999  1.0000
  H   H6        1.0  0.14271575085028565  0.23947907738328067  0.3027516514465749  1.0000
  H   H7        1.0  0.17549225079516972  0.8224190886724041  0.498923992134735  1.0000
  H   H8        1.0  0.2262240005658838  0.7037665780535325  0.8122390714143708  1.0000
  C   C16       1.0  0.17005874834916648  0.5782238288092421  0.24976634220445398  1.0000
  C   C17       1.0  0.1004078632340577  0.49802019807869735  0.18840346748812453  1.0000
  C   C18       1.0  0.10040780359387272  0.498020290546638  0.05752132746648253  1.0000
  C   C19       1.0  0.1700586729408169  0.5782238995002291  0.9852567778282373  1.0000
  C   C20       1.0  0.23965206839439435  0.6583610654399128  0.0466191215995113  1.0000
  C   C21       1.0  0.23965205588916416  0.6583610430783273  0.17751142027917965  1.0000
  H   H9        1.0  0.24049426178410738  0.6593317369581015  0.5429637995708612  1.0000
  H   H10       1.0  0.04581221133005853  0.43515280171882526  0.2414870299996099  1.0000
  H   H11       1.0  0.045812191633799015  0.4351528696003515  0.012983000723611134  1.0000
  H   H12       1.0  0.294254850313062  0.7212367461040685  0.9935798882982162  1.0000
  H   H13       1.0  0.2942548013247477  0.72123669555081  0.222004255820198  1.0000
  H   H14       1.0  0.24049455964082303  0.6593312345287092  0.6810347742309721  1.0000
  Zn  Zn1       1.0  0.06427528680836203  0.5782255406830026  0.6175133743685637  1.0000
  Zn  Zn2       1.0  0.27583291919716646  0.578221461861854  0.6175091904919625  1.0000
  C   C22       1.0  0.1700170998988755  0.5724788863165102  0.8462376236209759  1.0000
  C   C23       1.0  0.17009342880695  0.5839699357453012  0.38878506275413377  1.0000
  C   C24       1.0  0.17186279154763118  0.8416075274505648  0.6123254695234458  1.0000
  C   C25       1.0  0.16824765306813405  0.31483956201618435  0.6226972849063314  1.0000
  O   O1        1.0  0.25039004362320805  0.5858905424612992  0.43543943224000525  1.0000
  O   O2        1.0  0.25028782548312756  0.5705540959628513  0.7995797189872448  1.0000
  O   O3        1.0  0.2517771625509222  0.7878788772957408  0.6106939984928768  1.0000
  O   O4        1.0  0.24890063443598498  0.36856577144587654  0.6243250588319911  1.0000
  O   O5        1.0  0.09120749937531736  0.7878812311019425  0.6106975060233746  1.0000
  O   O6        1.0  0.08971817420335641  0.5705581823670767  0.7995831584579148  1.0000
  O   O7        1.0  0.08982039206257086  0.5858945786121628  0.4354413661254483  1.0000
  O   O8        1.0  0.0883309828005494  0.36856979728223505  0.6243270866146566  1.0000
