data_image0
_chemical_formula_structural       NC9NC3SH6C8H6C7OCH10Zn2C4O8
_chemical_formula_sum              "N2 C32 S1 H22 O9 Zn2"
_cell_length_a       16.77567553997237
_cell_length_b       9.27514070457351
_cell_length_c       10.300835455316063
_cell_angle_alpha    85.70757600904483
_cell_angle_beta     90.414716717709
_cell_angle_gamma    91.48491386358626

_space_group_name_H-M_alt    "P 1"
_space_group_IT_number       1

loop_
  _space_group_symop_operation_xyz
  'x, y, z'

loop_
  _atom_site_type_symbol
  _atom_site_label
  _atom_site_symmetry_multiplicity
  _atom_site_fract_x
  _atom_site_fract_y
  _atom_site_fract_z
  _atom_site_occupancy
  N   N1        1.0  0.7595734842336576  0.5986441096042903  0.5782768863555798  1.0000
  C   C1        1.0  0.7051475391068661  0.6534344195021904  0.6199996978160954  1.0000
  C   C2        1.0  0.6376041203978835  0.7214255714558093  0.6717745159404858  1.0000
  C   C3        1.0  0.6403201554553944  0.819275930002111  0.7670461980731632  1.0000
  C   C4        1.0  0.5649665496227763  0.8675619284593108  0.7986671439678549  1.0000
  C   C5        1.0  0.5026037412165489  0.8075241148167409  0.727920749739621  1.0000
  C   C6        1.0  0.416281413094964  0.8364722094374957  0.7388382263431987  1.0000
  C   C7        1.0  0.3589453216082682  0.7480728252278606  0.6803517031921005  1.0000
  C   C8        1.0  0.2774596609167618  0.7747879972304508  0.6902074715883073  1.0000
  C   C9        1.0  0.2194388025573971  0.6834247359259826  0.6303188528579847  1.0000
  N   N2        1.0  0.1728071327999233  0.6099817665615406  0.582177251001779  1.0000
  C   C10       1.0  0.2524822286035939  0.8902506968778414  0.7583894753313112  1.0000
  C   C11       1.0  0.3087275834542828  0.9788263058378712  0.8164148628255387  1.0000
  C   C12       1.0  0.39005796556672684  0.9525146076683217  0.806854598699848  1.0000
  S   S1        1.0  0.5425167748539368  0.6941268027992347  0.6265573015685133  1.0000
  H   H1        1.0  0.6949357425666192  0.8546707468444597  0.8128921874887638  1.0000
  H   H2        1.0  0.5571495870302432  0.9429866983816274  0.8723186495897588  1.0000
  H   H3        1.0  0.3772135086807371  0.6577757821547672  0.6276980582524376  1.0000
  H   H4        1.0  0.1896237418504724  0.9118622433270903  0.7665270766585557  1.0000
  H   H5        1.0  0.289274782118181  0.06844415024916904  0.8687494793020645  1.0000
  H   H6        1.0  0.4319196128524364  0.024311248999929525  0.851776265519783  1.0000
  C   C13       1.0  0.9637717530804845  0.1808056324186118  0.579296168672131  1.0000
  C   C14       1.0  0.9751350937157317  0.26453056234906436  0.4609551842915472  1.0000
  C   C15       1.0  0.9934529492656194  0.19969094373807275  0.3473337508984611  1.0000
  C   C16       1.0  0.0008457716178365013  0.04996445944023198  0.3498720448929069  1.0000
  C   C17       1.0  0.9884608165895096  0.9646301450226222  0.4660752798513204  1.0000
  C   C18       1.0  0.9686164127691006  0.027809384963779046  0.5811693094444206  1.0000
  C   C19       1.0  0.0202507936451306  0.9834028924718656  0.23263137257699398  1.0000
  C   C20       1.0  0.03649831548003801  0.9276589432606768  0.13447579961547884  1.0000
  H   H7        1.0  0.9768743659717611  0.25774779653762825  0.8984756167206943  1.0000
  H   H8        1.0  0.9717056736021615  0.38126038033145515  0.45694559204575375  1.0000
  H   H9        1.0  0.0026315598965673797  0.26666193364752266  0.257654180386937  1.0000
  H   H10       1.0  0.9924803096270475  0.8481331553564998  0.46595281420044365  1.0000
  H   H11       1.0  0.9743779699772922  0.7294933249580018  0.7961905663901087  1.0000
  H   H12       1.0  0.05076015243568154  0.8787257658765778  0.048315818801331956  1.0000
  C   C21       1.0  0.9661212199593479  0.6042319386839623  0.1989153366881795  1.0000
  C   C22       1.0  0.03972971252094748  0.6800235456905845  0.19383291610470166  1.0000
  C   C23       1.0  0.07634966611054693  0.7197114254289356  0.07404883650420625  1.0000
  C   C24       1.0  0.039921248653487014  0.680220414527235  0.9585363524701289  1.0000
  C   C25       1.0  0.9662669809171849  0.6043830604171581  0.9615501338108094  1.0000
  C   C26       1.0  0.929712352580788  0.5671412412845691  0.08217599747178839  1.0000
  C   C27       1.0  0.1561975795891759  0.7970603639154408  0.06999941421475198  1.0000
  O   O1        1.0  0.21653282019564046  0.6934664123453145  0.07784986320364817  1.0000
  C   C28       1.0  0.29182687904697274  0.7647410251980624  0.07416998788193685  1.0000
  H   H13       1.0  0.9383654420944179  0.5737215604557284  0.5283655544277266  1.0000
  H   H14       1.0  0.06888928548541418  0.7084725535390617  0.28290631160827484  1.0000
  H   H15       1.0  0.069212199303605  0.7088058837367951  0.8664364449313015  1.0000
  H   H16       1.0  0.8729460615464315  0.5086766557843208  0.08533345677379867  1.0000
  H   H17       1.0  0.8277581669721225  0.4598968118170841  0.7600864306507452  1.0000
  H   H18       1.0  0.16081980856734934  0.867570497168425  0.15287754944484244  1.0000
  H   H19       1.0  0.16100468680422567  0.8675975634866202  0.9777652940006398  1.0000
  H   H20       1.0  0.33858342880804027  0.6820597917126694  0.08040768235083617  1.0000
  H   H21       1.0  0.3002757853407012  0.8319272332951362  0.158537094738324  1.0000
  H   H22       1.0  0.3004708230376738  0.8319927314400537  0.9810280493760577  1.0000
  Zn  Zn1       1.0  0.8788237711564086  0.6019120635189135  0.5794099453849215  1.0000
  Zn  Zn2       1.0  0.05355677565702277  0.6067020498093716  0.581054829628618  1.0000
  C   C29       1.0  0.9662047744310629  0.5986091277837228  0.8173830843814046  1.0000
  C   C30       1.0  0.9661776908938517  0.610006857551505  0.34308184006757325  1.0000
  C   C31       1.0  0.9676955917948328  0.8677065072490291  0.5756407084033529  1.0000
  C   C32       1.0  0.9646868040084521  0.34090774376071353  0.5848242808818221  1.0000
  O   O2        1.0  0.03250687164707422  0.6137564561471698  0.39208964666313006  1.0000
  O   O3        1.0  0.03249389475287944  0.5984939299009531  0.7696233306652561  1.0000
  O   O4        1.0  0.033696854992032454  0.8157934427831443  0.5744146465967949  1.0000
  O   O5        1.0  0.031303851823786255  0.39645695192791  0.5872982328316078  1.0000
  O   O6        1.0  0.9010766353618538  0.8121571597673564  0.5731665416137874  1.0000
  O   O7        1.0  0.8998736850165396  0.5948593795776322  0.7683751602779066  1.0000
  O   O8        1.0  0.8998866613779544  0.6101218552594838  0.3908399149754223  1.0000
  O   O9        1.0  0.8986836415110103  0.3928223407442739  0.5860485984757394  1.0000
