data_image0
_chemical_formula_structural       NC5NC3OH4C6BrH5C6SCH8Zn2C4O8
_chemical_formula_sum              "N2 C25 O9 H17 Br1 S1 Zn2"
_cell_length_a       13.84702359539666
_cell_length_b       9.276564384272257
_cell_length_c       10.302812801239593
_cell_angle_alpha    85.51203806162957
_cell_angle_beta     89.9855797555544
_cell_angle_gamma    90.58678901707502

_space_group_name_H-M_alt    "P 1"
_space_group_IT_number       1

loop_
  _space_group_symop_operation_xyz
  'x, y, z'

loop_
  _atom_site_type_symbol
  _atom_site_label
  _atom_site_symmetry_multiplicity
  _atom_site_fract_x
  _atom_site_fract_y
  _atom_site_fract_z
  _atom_site_occupancy
  N   N1        1.0  0.9201922887047146  0.5782770874786154  0.5664305261931619  1.0000
  C   C1        1.0  0.8479886411191794  0.5696078158264886  0.6232329559301826  1.0000
  C   C2        1.0  0.758068041647826  0.558812741572472  0.6939639494031509  1.0000
  C   C3        1.0  0.6705555466883556  0.5692414680776561  0.6256327324986206  1.0000
  C   C4        1.0  0.5826233291033632  0.5589339105421001  0.6931696771019351  1.0000
  C   C5        1.0  0.49284604974889357  0.5696710945934861  0.6228180841904596  1.0000
  N   N2        1.0  0.42067674090455126  0.5783029662182999  0.5662610120938332  1.0000
  C   C6        1.0  0.5821980404349516  0.538166519844254  0.8292408501860177  1.0000
  C   C7        1.0  0.6693302400030562  0.5277280721590365  0.897633347596233  1.0000
  C   C8        1.0  0.757577430384324  0.5379692020113813  0.8305329884161688  1.0000
  O   O1        1.0  0.8444298758441471  0.527512934388948  0.8990438494397526  1.0000
  H   H1        1.0  0.6708896047950424  0.5853303734475539  0.5202164959944504  1.0000
  H   H2        1.0  0.5145875825030533  0.5300539254466882  0.8823955335986532  1.0000
  H   H3        1.0  0.6682180473490655  0.5116710785912486  0.0028411373769787764  1.0000
  H   H4        1.0  0.8458587121801986  0.5124850820390816  0.9975077959248109  1.0000
  C   C9        1.0  0.16752952977005187  0.15480890837212868  0.5666787296251881  1.0000
  C   C10       1.0  0.15515369702439608  0.23830756281513965  0.4480233415834542  1.0000
  C   C11       1.0  0.15176544039836615  0.17331852422420682  0.3304732485071946  1.0000
  C   C12       1.0  0.16073156000549618  0.02391182725146046  0.32934649516481196  1.0000
  C   C13       1.0  0.1714060892467091  0.9387197558811631  0.44620812634298224  1.0000
  C   C14       1.0  0.1733486503802979  0.0017600117639537999  0.5660239630312418  1.0000
  Br  Br1       1.0  0.15680636318453842  0.9355538577677158  0.16804698373933036  1.0000
  H   H5        1.0  0.13921060709782251  0.41735983479741595  0.777758622825995  1.0000
  H   H6        1.0  0.15038790151183723  0.35496370914606046  0.4458023289958852  1.0000
  H   H7        1.0  0.1430872303549957  0.23953831270595008  0.2400430526580912  1.0000
  H   H8        1.0  0.1758743802379943  0.8224800046069687  0.4434075324776512  1.0000
  H   H9        1.0  0.226622613869266  0.703830094525105  0.7682100271627521  1.0000
  C   C15       1.0  0.17043911690929628  0.5782844824511779  0.1851029077770041  1.0000
  C   C16       1.0  0.13885867162241872  0.7220941579747815  0.1738054895649781  1.0000
  C   C17       1.0  0.12289480642834194  0.7934366001611983  0.05120891447542441  1.0000
  C   C18       1.0  0.13885858352015812  0.722094006589306  0.9386543200222482  1.0000
  C   C19       1.0  0.17043905420238348  0.5782844727295828  0.9475998114352766  1.0000
  C   C20       1.0  0.18604511573530205  0.5070698014696529  0.07136356108166209  1.0000
  S   S1        1.0  0.08274518950089262  0.9772815109092094  0.03826949697642101  1.0000
  C   C21       1.0  0.955369493411651  0.9268903113124727  0.04186361685007256  1.0000
  H   H10       1.0  0.18230424761638875  0.5240710973579792  0.5166747490106758  1.0000
  H   H11       1.0  0.1263136028860652  0.7792157713628944  0.2598847659005499  1.0000
  H   H12       1.0  0.12631340811212466  0.7792155636183768  0.8445344531445409  1.0000
  H   H13       1.0  0.21038693518158613  0.3961334634441225  0.07917135491761651  1.0000
  H   H14       1.0  0.18230244431912057  0.5240703485732412  0.6236591646845602  1.0000
  H   H15       1.0  0.9378041133169813  0.8627359646390483  0.958272689079867  1.0000
  H   H16       1.0  0.9378045369431499  0.8627374220682695  0.13450737984660632  1.0000
  H   H17       1.0  0.9113576347905793  0.026425388459117894  0.03486530785281827  1.0000
  Zn  Zn1       1.0  0.06462126229856135  0.5782806949363561  0.5663890970948489  1.0000
  Zn  Zn2       1.0  0.2762476621775558  0.5782875590399459  0.5663130457474206  1.0000
  C   C22       1.0  0.17039744224558895  0.5725394928984093  0.8034760248060167  1.0000
  C   C23       1.0  0.17047380568582438  0.5840305807149815  0.32922624322537875  1.0000
  C   C24       1.0  0.17224373881316749  0.8416682471120256  0.5609742276057343  1.0000
  C   C25       1.0  0.1686274250008497  0.31490009390194795  0.5717281110077328  1.0000
  O   O2        1.0  0.25079652018402476  0.5859553373011643  0.3775664949582327  1.0000
  O   O3        1.0  0.250694261079359  0.5706188581008802  0.7550776789732085  1.0000
  O   O4        1.0  0.2521840862749276  0.7879437306908663  0.5592557612234577  1.0000
  O   O5        1.0  0.2493066228455878  0.3686304750249214  0.5733883153820474  1.0000
  O   O6        1.0  0.09156222941283643  0.7879377789506083  0.5593138274793441  1.0000
  O   O7        1.0  0.09007241611697057  0.5706146389592661  0.7551356746661462  1.0000
  O   O8        1.0  0.09017467494071041  0.5859510679062874  0.3776229297824747  1.0000
  O   O9        1.0  0.08868477752744908  0.36862619531552854  0.5734448475513476  1.0000
