data_image0
_chemical_formula_structural       NC5NC3BrH3C6NCH9C7ONH5Zn2C4O8
_chemical_formula_sum              "N4 C26 Br1 H17 O9 Zn2"
_cell_length_a       13.839083392302014
_cell_length_b       9.273386996610926
_cell_length_c       9.273042158839658
_cell_angle_alpha    86.06883900085258
_cell_angle_beta     90.09396774382412
_cell_angle_gamma    89.42455387291925

_space_group_name_H-M_alt    "P 1"
_space_group_IT_number       1

loop_
  _space_group_symop_operation_xyz
  'x, y, z'

loop_
  _atom_site_type_symbol
  _atom_site_label
  _atom_site_symmetry_multiplicity
  _atom_site_fract_x
  _atom_site_fract_y
  _atom_site_fract_z
  _atom_site_occupancy
  N   N1        1.0  0.8971712678787679  0.5627077649719026  0.40752367445204096  1.0000
  C   C1        1.0  0.8256190465229031  0.4990621719766148  0.4100926574273678  1.0000
  C   C2        1.0  0.7364701066679741  0.41986504721616247  0.4132892027775976  1.0000
  C   C3        1.0  0.6483743711773732  0.4960698787800549  0.41021362629493874  1.0000
  C   C4        1.0  0.5608565150816535  0.42133786277807367  0.41322970091158884  1.0000
  C   C5        1.0  0.4705417179639388  0.49989423778352804  0.41005905678886156  1.0000
  N   N2        1.0  0.3979403119641533  0.5630474026768817  0.407509910445093  1.0000
  C   C6        1.0  0.5613707659869551  0.27008949309583885  0.4193339728481653  1.0000
  C   C7        1.0  0.649022313694703  0.19376338519540107  0.42241435260145854  1.0000
  C   C8        1.0  0.7367412512718147  0.2677812316864099  0.41942712151731976  1.0000
  Br  Br1       1.0  0.854923209249356  0.15768387416911844  0.42387065794443374  1.0000
  H   H1        1.0  0.6479207795831335  0.613274562484689  0.4054831327686548  1.0000
  H   H2        1.0  0.49409274613639786  0.21123314686600667  0.42170910351913826  1.0000
  H   H3        1.0  0.648710944360602  0.07680791976914093  0.4271344103727568  1.0000
  C   C9        1.0  0.15053252715959764  0.13923306113151046  0.4082249955337174  1.0000
  C   C10       1.0  0.16736634465478728  0.22134726069926614  0.277902491686181  1.0000
  C   C11       1.0  0.17510212904042355  0.15547671676592545  0.14757218144514916  1.0000
  C   C12       1.0  0.1661197321022989  0.0051347738215168325  0.14423213403394053  1.0000
  C   C13       1.0  0.15098828641758932  0.9220540455204408  0.27410188161102433  1.0000
  C   C14       1.0  0.1445883675502566  0.9865110963333075  0.40682112737258525  1.0000
  N   N3        1.0  0.17303593051178456  0.9341989045133917  0.011211052484743748  1.0000
  C   C15       1.0  0.18898975450530853  0.010624584839346465  0.8705582350732399  1.0000
  H   H4        1.0  0.17051458904557748  0.40388403761729075  0.6448580851382746  1.0000
  H   H5        1.0  0.17229302257788914  0.3379778677469231  0.27613404458153434  1.0000
  H   H6        1.0  0.18718815246779674  0.22305570419082255  0.04966747051304354  1.0000
  H   H7        1.0  0.14642509595755818  0.8056259293105326  0.27182823262274525  1.0000
  H   H8        1.0  0.18052325711421677  0.858871539611156  0.7578752146082566  1.0000
  H   H9        1.0  0.16620754602212706  0.8218586355425187  0.014200072723884906  1.0000
  H   H10       1.0  0.1290622086336135  0.0888937036311801  0.8455170754068906  1.0000
  H   H11       1.0  0.2589290705981233  0.06822621425727982  0.8707888995915019  1.0000
  H   H12       1.0  0.19133879022862074  0.9322907321531344  0.7852297732055535  1.0000
  C   C16       1.0  0.14712968024902406  0.5584131725958099  0.9842655424252622  1.0000
  C   C17       1.0  0.05831514245818115  0.5675395954439664  0.056933563896470085  1.0000
  C   C18       1.0  0.9711476288932192  0.5906214635417002  0.9806414468786059  1.0000
  C   C19       1.0  0.9733425833773426  0.6028347593904453  0.8291224496196339  1.0000
  C   C20       1.0  0.06059011966110827  0.5915891645039859  0.7554485505010398  1.0000
  C   C21       1.0  0.14799126393892048  0.5673309646961264  0.8307805804465724  1.0000
  C   C22       1.0  0.8787420995924597  0.6005180547787021  0.06048749955461963  1.0000
  O   O1        1.0  0.872678335647783  0.5446861617945933  0.18795080205912207  1.0000
  N   N4        1.0  0.7960363922720133  0.6736515119229358  0.9968320221752114  1.0000
  H   H13       1.0  0.3811805551385965  0.6136769645031952  0.08412785807668266  1.0000
  H   H14       1.0  0.9075331305310248  0.617054086870241  0.7664774856446956  1.0000
  H   H15       1.0  0.30579626851021624  0.5978603934071032  0.5478040516101244  1.0000
  H   H16       1.0  0.8002527929122806  0.7359519648967591  0.8990628425556012  1.0000
  H   H17       1.0  0.7307275123584603  0.6734448413945269  0.053076545098332595  1.0000
  Zn  Zn1       1.0  0.04168243536052407  0.5628019969060982  0.407528038698886  1.0000
  Zn  Zn2       1.0  0.2534292316180368  0.5629414708087894  0.4075173943322312  1.0000
  C   C23       1.0  0.14786654498196095  0.5598981466932951  0.670780611567243  1.0000
  C   C24       1.0  0.14724742163881577  0.565847144299447  0.14426495979859366  1.0000
  C   C25       1.0  0.1457011371435215  0.8262970154060412  0.4013428658893412  1.0000
  C   C26       1.0  0.1494127694609326  0.2994465430827853  0.4137027851956856  1.0000
  O   O2        1.0  0.22764378653145353  0.5683886889301526  0.197958196828651  1.0000
  O   O3        1.0  0.22818110617437992  0.5574613668294828  0.6170788826041604  1.0000
  O   O4        1.0  0.22643143023667303  0.772581837463503  0.3995059942214576  1.0000
  O   O5        1.0  0.2293933900319316  0.3532682274301128  0.41553097712783305  1.0000
  O   O6        1.0  0.06571820468782108  0.7724752402386699  0.39951445589933265  1.0000
  O   O7        1.0  0.06746786838304253  0.5573565020624602  0.6170872645588938  1.0000
  O   O8        1.0  0.06693054739338589  0.5682837556347851  0.19796484596572106  1.0000
  O   O9        1.0  0.06868015107228498  0.35316328495465976  0.41553773434447305  1.0000
