data_image0
_chemical_formula_structural       NC9NC3OH6C8H6C9H10Zn2C4O8
_chemical_formula_sum              "N2 C33 O9 H22 Zn2"
_cell_length_a       15.78231758774541
_cell_length_b       9.27514070457351
_cell_length_c       9.272679976505533
_cell_angle_alpha    86.15343735439215
_cell_angle_beta     90.48255963298988
_cell_angle_gamma    90.22379856908987

_space_group_name_H-M_alt    "P 1"
_space_group_IT_number       1

loop_
  _space_group_symop_operation_xyz
  'x, y, z'

loop_
  _atom_site_type_symbol
  _atom_site_label
  _atom_site_symmetry_multiplicity
  _atom_site_fract_x
  _atom_site_fract_y
  _atom_site_fract_z
  _atom_site_occupancy
  N   N1        1.0  0.8008924371737168  0.5564088392583506  0.41618658754739823  1.0000
  C   C1        1.0  0.7519164048122533  0.4655104257950622  0.44269839658420773  1.0000
  C   C2        1.0  0.6911109733865967  0.352683402941087  0.47560638483267637  1.0000
  C   C3        1.0  0.7100809244674988  0.21095377547797045  0.5168559645956863  1.0000
  C   C4        1.0  0.6330150058856082  0.1422667117164793  0.5369298884906784  1.0000
  C   C5        1.0  0.571747171516871  0.2471632233251937  0.5064463056818033  1.0000
  C   C6        1.0  0.4785617964211599  0.22777027620140647  0.5121841283348354  1.0000
  C   C7        1.0  0.425397285890624  0.34668215489493437  0.4774439565962577  1.0000
  C   C8        1.0  0.3371134322517145  0.3307804667588323  0.48215678304584747  1.0000
  C   C9        1.0  0.2832692793244521  0.45315207503870447  0.44639667323246884  1.0000
  N   N2        1.0  0.239991392182787  0.5515230485807693  0.41764872926272323  1.0000
  C   C10       1.0  0.3013119470579178  0.1957899343181606  0.5216637428057058  1.0000
  C   C11       1.0  0.35354674534152  0.07712394127248001  0.5563369272367311  1.0000
  C   C12       1.0  0.44164280551024215  0.09258877323677875  0.5517521576978326  1.0000
  O   O1        1.0  0.6088129060201474  0.37147835953923797  0.47021110361957413  1.0000
  H   H1        1.0  0.7723075174605257  0.16315700918806475  0.5307103520265819  1.0000
  H   H2        1.0  0.6237309858629692  0.029326208285199495  0.5698174979589921  1.0000
  H   H3        1.0  0.45251540562251724  0.4517286830033583  0.4466952950758829  1.0000
  H   H4        1.0  0.23313011994722133  0.18232201197758677  0.5256529055211707  1.0000
  H   H5        1.0  0.325701816591103  0.9727955695074351  0.586875845202782  1.0000
  H   H6        1.0  0.48027037362886704  0.9985970231279757  0.57922492017942  1.0000
  C   C13       1.0  0.017868008570856242  0.13054569743384303  0.41590084054855286  1.0000
  C   C14       1.0  0.029426621363256564  0.21279539554904342  0.28442783259966653  1.0000
  C   C15       1.0  0.04839532225418616  0.14624794694056534  0.15814667216046185  1.0000
  C   C16       1.0  0.056261632445696125  0.9962526693314026  0.16091362502628676  1.0000
  C   C17       1.0  0.04360818947035525  0.9124152055077946  0.2900201789911422  1.0000
  C   C18       1.0  0.023023867718529243  0.9773751268579668  0.4179469612998982  1.0000
  C   C19       1.0  0.07636973726560331  0.9279090564069228  0.030606472881338446  1.0000
  C   C20       1.0  0.09320597510795903  0.870673099288798  0.921511446103489  1.0000
  H   H7        1.0  0.03318062235332642  0.2097454975204427  0.7701951891012482  1.0000
  H   H8        1.0  0.025765219980759858  0.32962529657046846  0.27999978337707265  1.0000
  H   H9        1.0  0.057757402801847685  0.21207867415339532  0.05851162983360103  1.0000
  H   H10       1.0  0.04787857344017945  0.7957590178745173  0.28985630363418147  1.0000
  H   H11       1.0  0.030082497473586475  0.680700558858935  0.6566453112256632  1.0000
  H   H12       1.0  0.10798457637983522  0.820430255240294  0.8257489225993607  1.0000
  C   C21       1.0  0.0187074152080442  0.5505747217378572  0.9935472646093712  1.0000
  C   C22       1.0  0.07574259797815851  0.460743201864557  0.07378970705633492  1.0000
  C   C23       1.0  0.13702124706483543  0.3825495737565504  0.005207042275299661  1.0000
  C   C24       1.0  0.1433373141527846  0.39161530437940245  0.854387710469149  1.0000
  C   C25       1.0  0.0852732355642804  0.479501233492557  0.7727528767289504  1.0000
  C   C26       1.0  0.022184469878243396  0.5573461223115392  0.8403005526930389  1.0000
  C   C27       1.0  0.21245992359440835  0.303982516967249  0.7882615280755103  1.0000
  C   C28       1.0  0.19188391209992706  0.2382202741069919  0.6459350455738306  1.0000
  C   C29       1.0  0.25226314998927185  0.366663618193908  0.6486269562490583  1.0000
  H   H13       1.0  0.8917302155363768  0.6494827967844374  0.2663089206065603  1.0000
  H   H14       1.0  0.07435704340832644  0.4534848961725808  0.19084226925842307  1.0000
  H   H15       1.0  0.18047650174582008  0.315426739324828  0.07082449052336279  1.0000
  H   H16       1.0  0.08720640561333037  0.4857134261392406  0.6559953447129252  1.0000
  H   H17       1.0  0.8306582997427394  0.6951327511005871  0.72528508381312  1.0000
  H   H18       1.0  0.25634675448205346  0.23862656300337404  0.8604385283586594  1.0000
  H   H19       1.0  0.12910073943990996  0.2635261301474292  0.5961033401814663  1.0000
  H   H20       1.0  0.22416086754072695  0.134051091679126  0.6314998189808931  1.0000
  H   H21       1.0  0.22619738115449897  0.4699252697733483  0.6003137189240739  1.0000
  H   H22       1.0  0.31983896538972956  0.3375543874735363  0.6357612146508922  1.0000
  Zn  Zn1       1.0  0.9276069175954017  0.5549951206518742  0.4166168396268397  1.0000
  Zn  Zn2       1.0  0.11327686001452303  0.5529250932234184  0.41723023445364427  1.0000
  C   C30       1.0  0.021490377374458795  0.5503220358582428  0.6802321227014239  1.0000
  C   C31       1.0  0.01939543940326514  0.5575999758446977  0.1536151039799069  1.0000
  C   C32       1.0  0.022021364417483147  0.8172604419106424  0.411814941272518  1.0000
  C   C33       1.0  0.01886437877238501  0.29065983876523105  0.4220323578791048  1.0000
  O   O2        1.0  0.09008708383015818  0.5591658602084842  0.20756809805161763  1.0000
  O   O3        1.0  0.0917179148066944  0.5471839575037035  0.6267442634569809  1.0000
  O   O4        1.0  0.09214574987016161  0.762740118866018  0.40999549084146314  1.0000
  O   O5        1.0  0.08965918502901798  0.3436097090026647  0.42431676238228033  1.0000
  O   O6        1.0  0.9512245292208463  0.764310505580535  0.40953031148130203  1.0000
  O   O7        1.0  0.9507967043851738  0.5487560759531964  0.6262790114096262  1.0000
  O   O8        1.0  0.9491658660411647  0.5607379145495797  0.20710111249441196  1.0000
  O   O9        1.0  0.9487379676176366  0.3451817538951729  0.42384988489302877  1.0000
