data_image0
_chemical_formula_structural       NC9NC3OCH8C12OCH12C12BrH8Zn2C4O8
_chemical_formula_sum              "N2 C42 O10 H28 Br1 Zn2"
_cell_length_a       17.728193572023454
_cell_length_b       10.299790755002418
_cell_length_c       10.299148005577397
_cell_angle_alpha    85.54790519994738
_cell_angle_beta     90.6776520193625
_cell_angle_gamma    88.43583692371087

_space_group_name_H-M_alt    "P 1"
_space_group_IT_number       1

loop_
  _space_group_symop_operation_xyz
  'x, y, z'

loop_
  _atom_site_type_symbol
  _atom_site_label
  _atom_site_symmetry_multiplicity
  _atom_site_fract_x
  _atom_site_fract_y
  _atom_site_fract_z
  _atom_site_occupancy
  N   N1        1.0  0.7107358052721352  0.3871205599491454  0.585016008395757  1.0000
  C   C1        1.0  0.6501237498115825  0.34969066381778957  0.598024542797079  1.0000
  C   C2        1.0  0.5746700708953418  0.3031603052249683  0.6142148267347123  1.0000
  C   C3        1.0  0.5627821380093777  0.17512067148098343  0.6236446807645672  1.0000
  C   C4        1.0  0.486072638058933  0.12566698558498102  0.6385995999955216  1.0000
  C   C5        1.0  0.4279113899114979  0.2083345353783994  0.656064544945582  1.0000
  C   C6        1.0  0.3498613374190481  0.16328344220101293  0.6778030603270371  1.0000
  C   C7        1.0  0.28852089159783073  0.24875729065876315  0.6423335989069221  1.0000
  C   C8        1.0  0.21424462418806267  0.20945164161857696  0.6624854284983057  1.0000
  C   C9        1.0  0.15192572548337938  0.29746259804070213  0.6249413341816055  1.0000
  N   N2        1.0  0.10183474029758412  0.3682148796919562  0.5947594313341529  1.0000
  C   C10       1.0  0.20067706852354064  0.08455214198416725  0.7191608674182495  1.0000
  C   C11       1.0  0.2611184363481717  0.9993956452775017  0.7560389399763277  1.0000
  C   C12       1.0  0.3352910846079592  0.038211648250536134  0.7360167353280072  1.0000
  O   O1        1.0  0.4412546420760368  0.3421206892810471  0.6547597215975349  1.0000
  C   C13       1.0  0.5089863411756006  0.39950811309786677  0.6061438056385622  1.0000
  H   H1        1.0  0.6097168052683882  0.10566006574104914  0.6215482206389402  1.0000
  H   H2        1.0  0.4784312105895729  0.022017778549888508  0.6366241264725987  1.0000
  H   H3        1.0  0.2984140316307507  0.3455892807353946  0.5978981038416789  1.0000
  H   H4        1.0  0.14346134012708964  0.05326146291554811  0.7353039844292  1.0000
  H   H5        1.0  0.2504884072596253  0.9032224571935596  0.8009355484263248  1.0000
  H   H6        1.0  0.3808202262099217  0.9709762954293873  0.7684431869929762  1.0000
  H   H7        1.0  0.49954095975951573  0.43545255032782787  0.5026099720648776  1.0000
  H   H8        1.0  0.5218446788256494  0.48388613111544243  0.6627230735784286  1.0000
  C   C14       1.0  0.9063567061539426  0.9962965110551263  0.589928454353492  1.0000
  C   C15       1.0  0.8844764574138932  0.9861680050196996  0.7208282487319309  1.0000
  C   C16       1.0  0.8733296919574892  0.8639024282139321  0.7871215253312833  1.0000
  C   C17       1.0  0.8843408970215877  0.7508922748350301  0.7207590830188646  1.0000
  C   C18       1.0  0.9062211125134374  0.7590285678518646  0.5898583552489223  1.0000
  C   C19       1.0  0.9171082566691744  0.8821775569853836  0.5251767114701478  1.0000
  C   C20       1.0  0.8501862254800587  0.8542409236056776  0.9256075290099559  1.0000
  C   C21       1.0  0.795111296566778  0.766030116614132  0.9693033471492789  1.0000
  C   C22       1.0  0.7733972745387024  0.7572073723650788  0.0995082243338523  1.0000
  C   C23       1.0  0.8062695316012519  0.835950254828261  0.1876798758692816  1.0000
  C   C24       1.0  0.8615448591187964  0.9247601729859757  0.14586085319998732  1.0000
  C   C25       1.0  0.8830250743522291  0.9332331124544758  0.015123424153788092  1.0000
  O   O2        1.0  0.8964048318244777  0.005762124206076793  0.230602102415728  1.0000
  C   C26       1.0  0.8801893648583466  0.00750225914244629  0.36554125789066305  1.0000
  H   H9        1.0  0.9147270385333197  0.327605784509771  0.5400721293821809  1.0000
  H   H10       1.0  0.8750519758423931  0.07364196298660163  0.771024837132386  1.0000
  H   H11       1.0  0.8768039564751472  0.6563483763730414  0.7719418575405199  1.0000
  H   H12       1.0  0.9339885249216956  0.8892228469161498  0.4241930650688528  1.0000
  H   H13       1.0  0.9145209278228658  0.4346792203314692  0.5399626364388019  1.0000
  H   H14       1.0  0.7681372099716016  0.7051154944059519  0.9024183774892294  1.0000
  H   H15       1.0  0.7307675764963913  0.6892927145489061  0.13212674021942805  1.0000
  H   H16       1.0  0.788358388029604  0.8270506544714391  0.28790547204978356  1.0000
  H   H17       1.0  0.9262632582799313  0.0006919066997310837  0.9840330035910408  1.0000
  H   H18       1.0  0.893211690521997  0.9103357039311003  0.41649089068355927  1.0000
  H   H19       1.0  0.9157891645802351  0.08041370239941226  0.40864465931500493  1.0000
  H   H20       1.0  0.8199420738642833  0.03532298112524467  0.3784765561146408  1.0000
  C   C27       1.0  0.9063917497920589  0.3777096231809074  0.20850779134691313  1.0000
  C   C28       1.0  0.8353973588933157  0.44192116439883755  0.20129676303620725  1.0000
  C   C29       1.0  0.799295436103803  0.47442965927062275  0.08049970934885442  1.0000
  C   C30       1.0  0.8351455066634149  0.4418605340550108  0.9660134601058158  1.0000
  C   C31       1.0  0.9061860327401344  0.377615495929559  0.9712790288470083  1.0000
  C   C32       1.0  0.9413715681568273  0.3459336715093534  0.09293901095236379  1.0000
  C   C33       1.0  0.7241924777685748  0.5423596263036321  0.07391624116957596  1.0000
  C   C34       1.0  0.7083227716946242  0.6444443040036619  0.1535900331485529  1.0000
  C   C35       1.0  0.6376017944179257  0.708271772167683  0.14719801064088656  1.0000
  C   C36       1.0  0.5819466277550162  0.6710185156226194  0.06145032103822002  1.0000
  C   C37       1.0  0.5970582396823683  0.5697573478943903  0.9819051085502397  1.0000
  C   C38       1.0  0.6677150974987238  0.5057110143148382  0.9879030145976611  1.0000
  Br  Br1       1.0  0.48538616468486023  0.7583567096912558  0.052987247930201375  1.0000
  H   H21       1.0  0.8075464973045398  0.4652136605594117  0.289940507751701  1.0000
  H   H22       1.0  0.8080391110755251  0.46826575674058585  0.8725194906791777  1.0000
  H   H23       1.0  0.9961324054710884  0.2964095928124695  0.09778504208676832  1.0000
  H   H24       1.0  0.04048188512788965  0.2570814127018064  0.7738737987841233  1.0000
  H   H25       1.0  0.7508977735986684  0.6760032693996507  0.21955534281269548  1.0000
  H   H26       1.0  0.6261918571309628  0.7868894859826532  0.2087114328919246  1.0000
  H   H27       1.0  0.5540364351966053  0.5403719622828778  0.9156214785369515  1.0000
  H   H28       1.0  0.67786239134051  0.4264650467867987  0.9265592904717264  1.0000
  Zn  Zn1       1.0  0.8235985197759625  0.3816613177129215  0.5878352501489044  1.0000
  Zn  Zn2       1.0  0.9889720504059524  0.3736635168361202  0.5919508286894328  1.0000
  C   C39       1.0  0.9062241634861922  0.3724596544563319  0.8270993939439686  1.0000
  C   C40       1.0  0.9063482122438039  0.3828667313699352  0.35268685715789894  1.0000
  C   C41       1.0  0.9062442351875287  0.6148568247894979  0.5846961476282913  1.0000
  C   C42       1.0  0.9063280843707961  0.14046800344605925  0.5950901714541894  1.0000
  O   O3        1.0  0.9690919946749679  0.38155671446416195  0.40263650986408  1.0000
  O   O4        1.0  0.9689950645951868  0.3676985458713178  0.7802729963495992  1.0000
  O   O5        1.0  0.9690104263705144  0.5634373671942234  0.5845306387278182  1.0000
  O   O6        1.0  0.9690765764934658  0.18581790517265606  0.5983787687017024  1.0000
  O   O7        1.0  0.8434939372545808  0.5695069321070572  0.5814073087253584  1.0000
  O   O8        1.0  0.8434785752170558  0.37376967110553305  0.7771495969552502  1.0000
  O   O9        1.0  0.8435755057761719  0.38762779463243996  0.3995115490059882  1.0000
  O   O10       1.0  0.8435600875669761  0.19188897604020605  0.5952539052164929  1.0000
