data_image0
_chemical_formula_structural       NC9NC3OH6C7F3H5C12H10Zn2C4O8
_chemical_formula_sum              "N2 C35 O9 H21 F3 Zn2"
_cell_length_a       15.78231758774541
_cell_length_b       9.272718291674593
_cell_length_c       10.299141136925906
_cell_angle_alpha    85.97515333800408
_cell_angle_beta     90.10591436666134
_cell_angle_gamma    89.20559360488726

_space_group_name_H-M_alt    "P 1"
_space_group_IT_number       1

loop_
  _space_group_symop_operation_xyz
  'x, y, z'

loop_
  _atom_site_type_symbol
  _atom_site_label
  _atom_site_symmetry_multiplicity
  _atom_site_fract_x
  _atom_site_fract_y
  _atom_site_fract_z
  _atom_site_occupancy
  N   N1        1.0  0.7906593259936298  0.5695042303839573  0.5804625026453638  1.0000
  C   C1        1.0  0.7425312988516041  0.4783880362393844  0.6039262040277018  1.0000
  C   C2        1.0  0.6827784465213559  0.36529069139908943  0.6330507111965784  1.0000
  C   C3        1.0  0.7030709484016245  0.2232222267816186  0.6695563710717165  1.0000
  C   C4        1.0  0.626645668789102  0.1543702631631485  0.6873229985067533  1.0000
  C   C5        1.0  0.5643988177650222  0.25951717313584566  0.6603459148957098  1.0000
  C   C6        1.0  0.4713940528596303  0.2400770866399633  0.665425337088406  1.0000
  C   C7        1.0  0.417120414651841  0.359274342083  0.6346783897084995  1.0000
  C   C8        1.0  0.3289846262142883  0.34333393489068387  0.6388505552591539  1.0000
  C   C9        1.0  0.2739991104630735  0.46599929899804615  0.6072007625706601  1.0000
  N   N2        1.0  0.2298037204092635  0.5646064261752384  0.5817571250090068  1.0000
  C   C10       1.0  0.29444197593336496  0.20801886320116078  0.6738174627205487  1.0000
  C   C11       1.0  0.3477835900479207  0.08906804331521978  0.7045051990085265  1.0000
  C   C12       1.0  0.43573565807900233  0.10457054236663564  0.7004463775666467  1.0000
  O   O1        1.0  0.6003047098046367  0.38412996089341145  0.6282770992434361  1.0000
  H   H1        1.0  0.7657437718628319  0.17531166042670934  0.6818165364652262  1.0000
  H   H2        1.0  0.6184154894387792  0.04115960917868433  0.716428626554086  1.0000
  H   H3        1.0  0.44325895793682285  0.4645734627262686  0.6074632136840423  1.0000
  H   H4        1.0  0.22638556149087252  0.19451816736656635  0.6773489474212633  1.0000
  H   H5        1.0  0.32091153902799496  0.9844888019705608  0.7315347415865716  1.0000
  H   H6        1.0  0.4752398667680521  0.010353113416522673  0.7247614762361532  1.0000
  C   C13       1.0  0.012080190433555679  0.1436528225441589  0.5782463445503914  1.0000
  C   C14       1.0  0.9604056816047041  0.2255663238328376  0.4883410047637862  1.0000
  C   C15       1.0  0.9027381063314487  0.15869955087256815  0.4086654124585806  1.0000
  C   C16       1.0  0.8989900645733778  0.007450603104424132  0.41624721340789766  1.0000
  C   C17       1.0  0.9507272025912162  0.924578106538812  0.5033424170799456  1.0000
  C   C18       1.0  0.008390977215738216  0.9904466588759391  0.5839844877532199  1.0000
  C   C19       1.0  0.8495202164882585  0.24822985401786116  0.31049316782357117  1.0000
  F   F1        1.0  0.8277588920041615  0.37987888138520587  0.35762905205089224  1.0000
  F   F2        1.0  0.775546339142601  0.1776618760724029  0.2831412071564543  1.0000
  F   F3        1.0  0.895202164337043  0.27253363352901294  0.1968644970672031  1.0000
  H   H7        1.0  0.11276308827851711  0.22114640261616644  0.8588261783060352  1.0000
  H   H8        1.0  0.9637864392584093  0.34249910153892493  0.4823063029883474  1.0000
  H   H9        1.0  0.8566200332828022  0.952847631700862  0.3536691748414236  1.0000
  H   H10       1.0  0.9472692316518327  0.8078471059540132  0.5050795946737701  1.0000
  H   H11       1.0  0.19033561674196522  0.8724609451061495  0.7408345125303191  1.0000
  C   C20       1.0  0.010138740366290035  0.5671738691132895  0.1997229460839398  1.0000
  C   C21       1.0  0.09858080515518769  0.5817148314285749  0.19827384596023934  1.0000
  C   C22       1.0  0.1435241739678602  0.5889601459714269  0.08040481266341515  1.0000
  C   C23       1.0  0.09883000971926953  0.5814682482416567  0.9630072207311917  1.0000
  C   C24       1.0  0.01033246742009086  0.5669256136574128  0.9625078746777431  1.0000
  C   C25       1.0  0.9665317607041685  0.559865592665338  0.08131385437134386  1.0000
  C   C26       1.0  0.23708697193777695  0.6043448373381559  0.07991658646394617  1.0000
  C   C27       1.0  0.28785961478043626  0.5249391773605621  0.9973076057764989  1.0000
  C   C28       1.0  0.3759181394695992  0.5395994549590499  0.9970871899882799  1.0000
  C   C29       1.0  0.4142228432377975  0.6334672808930872  0.07899841978067812  1.0000
  C   C30       1.0  0.3645464748119518  0.7128702776447609  0.16136601640975234  1.0000
  C   C31       1.0  0.2764641705954036  0.6985717389229427  0.1620586327061886  1.0000
  H   H12       1.0  0.9761133734401952  0.5616539117815562  0.5277514761952236  1.0000
  H   H13       1.0  0.13285092148730404  0.5854483386049409  0.2891552069617429  1.0000
  H   H14       1.0  0.13301802417151654  0.5889818048010889  0.8717357755965268  1.0000
  H   H15       1.0  0.898314133039942  0.5486538245823962  0.08171569061247852  1.0000
  H   H16       1.0  0.8432389343231561  0.5403924188819065  0.7542161237063989  1.0000
  H   H17       1.0  0.2595822968235122  0.4502102215097141  0.9342033674335846  1.0000
  H   H18       1.0  0.4145032433665121  0.4778213790869097  0.9335558075598813  1.0000
  H   H19       1.0  0.4823951302776106  0.6446751280005762  0.07864521266620539  1.0000
  H   H20       1.0  0.3942865082517222  0.7858811797224614  0.2245432239488112  1.0000
  H   H21       1.0  0.23909154114426212  0.7625068300158573  0.2255042011807813  1.0000
  Zn  Zn1       1.0  0.9173869272177719  0.5680869761298706  0.5808435705255053  1.0000
  Zn  Zn2       1.0  0.10307614465658682  0.5660119092558971  0.5813865943619188  1.0000
  C   C32       1.0  0.010318960883785921  0.5612286558621156  0.8182862374191721  1.0000
  C   C33       1.0  0.01014613081767113  0.5728720260467219  0.34394407319992215  1.0000
  C   C34       1.0  0.009082653110928263  0.8303863370452201  0.5777243188163061  1.0000
  C   C35       1.0  0.011382382792306737  0.30371261327384724  0.5845060491220342  1.0000
  O   O2        1.0  0.08061672881553611  0.5739906122969505  0.39255203302812336  1.0000
  O   O3        1.0  0.08078218700978845  0.5585340542848791  0.7700900388784067  1.0000
  O   O4        1.0  0.07978290324733361  0.7758822959797591  0.5758345949719836  1.0000
  O   O5        1.0  0.08161594914517507  0.3566423816560105  0.5868073794384641  1.0000
  O   O6        1.0  0.938847059362558  0.7774565044394479  0.5754227852568323  1.0000
  O   O7        1.0  0.9398463355566089  0.5601099950440283  0.7696781716518815  1.0000
  O   O8        1.0  0.9396808772410835  0.575566503319695  0.3921386039642551  1.0000
  O   O9        1.0  0.9406800976369128  0.3582182623345056  0.5863940476785507  1.0000
