data_image0
_chemical_formula_structural       NC9NC3OH6C9H10C7F3H4Zn2C4O8
_chemical_formula_sum              "N2 C32 O9 H20 F3 Zn2"
_cell_length_a       15.78231758774541
_cell_length_b       9.272676604525723
_cell_length_c       9.272721663655245
_cell_angle_alpha    86.12112079025516
_cell_angle_beta     90.60221336655935
_cell_angle_gamma    90.18380166211226

_space_group_name_H-M_alt    "P 1"
_space_group_IT_number       1

loop_
  _space_group_symop_operation_xyz
  'x, y, z'

loop_
  _atom_site_type_symbol
  _atom_site_label
  _atom_site_symmetry_multiplicity
  _atom_site_fract_x
  _atom_site_fract_y
  _atom_site_fract_z
  _atom_site_occupancy
  N   N1        1.0  0.7983349229044984  0.5606193752532438  0.41895828476452923  1.0000
  C   C1        1.0  0.7494275332642303  0.46964216075837695  0.4452961222210538  1.0000
  C   C2        1.0  0.6887073046152749  0.3567173256852991  0.47798816952819934  1.0000
  C   C3        1.0  0.707784176551709  0.21486505346953447  0.5189664751223217  1.0000
  C   C4        1.0  0.6307701769831021  0.14611834175664984  0.5389089454103935  1.0000
  C   C5        1.0  0.569423264859313  0.251105508513334  0.5086261456558183  1.0000
  C   C6        1.0  0.47625263433132464  0.23169554275723625  0.5143268668696592  1.0000
  C   C7        1.0  0.4229982557143863  0.35071065419549674  0.47981427142021116  1.0000
  C   C8        1.0  0.3347265019668437  0.33479499106595334  0.4844966771615484  1.0000
  C   C9        1.0  0.28078985502461373  0.4572728588748922  0.44897076326515734  1.0000
  N   N2        1.0  0.23743761288426202  0.555729254987225  0.4204110823127625  1.0000
  C   C10       1.0  0.2990271212590965  0.19968709152963718  0.5237453016576605  1.0000
  C   C11       1.0  0.351351607731142  0.08091806692573345  0.5581913812699852  1.0000
  C   C12       1.0  0.43943589868911226  0.09639649354226033  0.5536361964526182  1.0000
  O   O1        1.0  0.6063951499333168  0.3755283567406375  0.47262887607521975  1.0000
  H   H1        1.0  0.7700467582159192  0.1670270698667422  0.5327293679346814  1.0000
  H   H2        1.0  0.6215713800138729  0.03308006315338118  0.5715803869418474  1.0000
  H   H3        1.0  0.4500369136560167  0.4558485279838267  0.4492666394982372  1.0000
  H   H4        1.0  0.23085553925251662  0.18620733906071418  0.5277086991450357  1.0000
  H   H5        1.0  0.3235855981027206  0.9764989727768711  0.5885306440739067  1.0000
  H   H6        1.0  0.47813451734380175  0.0023231119996873825  0.5809290777474082  1.0000
  C   C13       1.0  0.01547979241549923  0.13470231706718197  0.4178346500940231  1.0000
  C   C14       1.0  0.9821954074072375  0.19984624281426647  0.5371470300181566  1.0000
  C   C15       1.0  0.9566818187783187  0.11668751078215277  0.6600092892269362  1.0000
  C   C16       1.0  0.9636301903566283  0.9659040994837703  0.667693527185315  1.0000
  C   C17       1.0  0.9955204874901928  0.8993197608202577  0.5472655620890867  1.0000
  C   C18       1.0  0.020300859649102315  0.9816351997567709  0.42154716330998787  1.0000
  C   C19       1.0  0.9351695451336222  0.8833872018022078  0.8061169036284852  1.0000
  C   C20       1.0  0.8922710963664355  0.7376894269789002  0.7916178381711763  1.0000
  C   C21       1.0  0.982061500084475  0.7444774809089912  0.8529282097600939  1.0000
  H   H7        1.0  0.033044998486778436  0.431997887402636  0.1816011202439507  1.0000
  H   H8        1.0  0.977723937694061  0.3164177836604314  0.5369936171062606  1.0000
  H   H9        1.0  0.9320607007976579  0.17091997489993344  0.7505299352323678  1.0000
  H   H10       1.0  0.9995696727406065  0.7828818910710633  0.5486179734212888  1.0000
  H   H11       1.0  0.04041847792294414  0.9026011739818235  0.06853918509991064  1.0000
  H   H12       1.0  0.9116648826213392  0.9442847555729661  0.8968290013566638  1.0000
  H   H13       1.0  0.8877574083301584  0.6978684643580655  0.6816750514135703  1.0000
  H   H14       1.0  0.843606416867595  0.7099190525753484  0.8746453813427607  1.0000
  H   H15       1.0  0.03206532539052921  0.7086521833616203  0.7803132573414907  1.0000
  H   H16       1.0  0.9858729126339045  0.7206684724506273  0.9718077575764246  1.0000
  C   C22       1.0  0.015635204672264078  0.5558547992191736  0.9962300034787622  1.0000
  C   C23       1.0  0.05102441892436316  0.4375008911637204  0.07855460943594195  1.0000
  C   C24       1.0  0.09388867989587973  0.32764197117356186  0.01231404187011731  1.0000
  C   C25       1.0  0.0987567294613711  0.33422871961115064  0.8612093125668765  1.0000
  C   C26       1.0  0.06284827664297937  0.4495858229796088  0.7779015823796169  1.0000
  C   C27       1.0  0.02014543837805104  0.5604827543694593  0.8431517709264289  1.0000
  C   C28       1.0  0.12942406462380118  0.199748768966016  0.10222252255340014  1.0000
  F   F1        1.0  0.1581966371027198  0.24134273764745728  0.23473359607014596  1.0000
  F   F2        1.0  0.19662288826328986  0.1393488842641959  0.03306459522482585  1.0000
  F   F3        1.0  0.06662855889301778  0.09664175269141384  0.12459742288185094  1.0000
  H   H17       1.0  0.9638825031989973  0.8998485021083534  0.07377696491886998  1.0000
  H   H18       1.0  0.1295913870889751  0.24916827086253734  0.8070337345834226  1.0000
  H   H19       1.0  0.06648161071943585  0.45000660238495754  0.6612609989100124  1.0000
  H   H20       1.0  0.8694811572164295  0.8054020517091292  0.7224240381224654  1.0000
  Zn  Zn1       1.0  0.9250504928310301  0.5592043856923377  0.41938583439609256  1.0000
  Zn  Zn2       1.0  0.11072201024444128  0.5571325393124247  0.4199952691398232  1.0000
  C   C29       1.0  0.019258298303655545  0.5538631230987807  0.6830402510382696  1.0000
  C   C30       1.0  0.01651624341010693  0.5624755995778534  0.15634100866348133  1.0000
  C   C31       1.0  0.019354588901361984  0.8215155169734494  0.4150990316867227  1.0000
  C   C32       1.0  0.01641988000277439  0.29482147427049554  0.42428229709301557  1.0000
  O   O2        1.0  0.08727326547012909  0.5639050545178244  0.21030697436732781  1.0000
  O   O3        1.0  0.08942165341070507  0.5508600945436626  0.6295364123271516  1.0000
  O   O4        1.0  0.08949846741815781  0.7669928063165345  0.41317198542713474  1.0000
  O   O5        1.0  0.08719638758849152  0.3477723531769714  0.42667129298261997  1.0000
  O   O6        1.0  0.9485760521263712  0.7685645725363393  0.41270981033774756  1.0000
  O   O7        1.0  0.948499247567937  0.5524335929047044  0.6290741679442289  1.0000
  O   O8        1.0  0.9463508501648011  0.5654784931521764  0.2098429960306325  1.0000
  O   O9        1.0  0.9462739727967404  0.3493457820878527  0.42620742271510137  1.0000
