data_image0
_chemical_formula_structural       NC9NC3OH6C9H7C6FH3Zn2C4O8
_chemical_formula_sum              "N2 C31 O9 H16 F1 Zn2"
_cell_length_a       15.78231758774541
_cell_length_b       9.275152443626249
_cell_length_c       9.275646106892307
_cell_angle_alpha    84.75470407364851
_cell_angle_beta     90.10253560025424
_cell_angle_gamma    90.20707041648353

_space_group_name_H-M_alt    "P 1"
_space_group_IT_number       1

loop_
  _space_group_symop_operation_xyz
  'x, y, z'

loop_
  _atom_site_type_symbol
  _atom_site_label
  _atom_site_symmetry_multiplicity
  _atom_site_fract_x
  _atom_site_fract_y
  _atom_site_fract_z
  _atom_site_occupancy
  N   N1        1.0  0.8068497205302405  0.5867799131745892  0.40519029220281966  1.0000
  C   C1        1.0  0.7577854227955315  0.4953396054734631  0.4322664524468154  1.0000
  C   C2        1.0  0.696870431055768  0.3818399528915468  0.4658749381620704  1.0000
  C   C3        1.0  0.7157031037426056  0.23926703945242725  0.5080043557404792  1.0000
  C   C4        1.0  0.638570328892893  0.1701697416095156  0.5285047772577178  1.0000
  C   C5        1.0  0.5774039158548055  0.27568952603419583  0.4973700656936584  1.0000
  C   C6        1.0  0.48419938849200045  0.2561794439126581  0.5032283875309328  1.0000
  C   C7        1.0  0.4311505729317344  0.37580129989554956  0.46774987214801467  1.0000
  C   C8        1.0  0.34285098360113014  0.3598034155011314  0.4725615140469359  1.0000
  C   C9        1.0  0.28912592788573666  0.4829058290924502  0.4360415677250222  1.0000
  N   N2        1.0  0.2459437851632655  0.5818643024958381  0.40668281161511  1.0000
  C   C10       1.0  0.30691788667038944  0.22400561071076242  0.5129067343772353  1.0000
  C   C11       1.0  0.35903721013956247  0.1046310179555563  0.5483167414284835  1.0000
  C   C12       1.0  0.44714857927339485  0.12018942986608816  0.5436358694592867  1.0000
  O   O1        1.0  0.614590273708799  0.4007453408866912  0.4603630688285492  1.0000
  H   H1        1.0  0.7778836237465572  0.1911869404753719  0.5221553920847212  1.0000
  H   H2        1.0  0.6291768487919355  0.05655693024829644  0.5620935256471442  1.0000
  H   H3        1.0  0.4583711305647424  0.48147612686376884  0.4363488893289331  1.0000
  H   H4        1.0  0.23872274152211082  0.2104562591178645  0.5169795859732873  1.0000
  H   H5        1.0  0.3310905419555979  0.9996786339309713  0.5795035216191274  1.0000
  H   H6        1.0  0.4856846471552769  0.02563624794889919  0.5716922577228241  1.0000
  C   C13       1.0  0.02390164508090552  0.16070205951581526  0.4074016579612627  1.0000
  C   C14       1.0  0.993316291167669  0.24509018590829612  0.2846740709844228  1.0000
  C   C15       1.0  0.9706062818742425  0.18123386099508298  0.1596774324616328  1.0000
  C   C16       1.0  0.9781249498341713  0.03185855843175121  0.1549338003892684  1.0000
  C   C17       1.0  0.007053308201818711  0.9458118751775634  0.27661942666129913  1.0000
  C   C18       1.0  0.02889988805085596  0.00793088755483141  0.4044839380247122  1.0000
  C   C19       1.0  0.9551480332038289  0.9663443849839954  0.02549375791585517  1.0000
  C   C20       1.0  0.9359102330059854  0.9114583480247915  0.9171080231030849  1.0000
  C   C21       1.0  0.9125689646917289  0.8448518478481548  0.7856009440784013  1.0000
  H   H7        1.0  0.1456957161274689  0.23791913071745377  0.6960787770022487  1.0000
  H   H8        1.0  0.9888530685133518  0.3616624737381635  0.28420487625499885  1.0000
  H   H9        1.0  0.9479374742523491  0.24872327387243343  0.06611869883479682  1.0000
  H   H10       1.0  0.1081846372085446  0.7096435075737676  0.6019157369592651  1.0000
  H   H11       1.0  0.9280602145512334  0.7278129449534306  0.7991380299650602  1.0000
  H   H12       1.0  0.8436054850707961  0.8584169544303947  0.7656065433616472  1.0000
  H   H13       1.0  0.9483338495537537  0.8977953123551733  0.6922935346728001  1.0000
  C   C22       1.0  0.026328792831739705  0.5888326757207241  0.9820864886414507  1.0000
  C   C23       1.0  0.1039954890087908  0.6030412456610804  0.05435911022317885  1.0000
  C   C24       1.0  0.18053206816836442  0.6037163843233675  0.9791681385558474  1.0000
  C   C25       1.0  0.1807452505770658  0.5900500226052451  0.8308399354294885  1.0000
  C   C26       1.0  0.10442042401145613  0.5782318711679928  0.7566315843848911  1.0000
  C   C27       1.0  0.02647270099644848  0.5798002573884464  0.8297991400236788  1.0000
  F   F1        1.0  0.2548062497639414  0.6159097108195217  0.05081070143870803  1.0000
  H   H14       1.0  0.8291729898368166  0.47383374360446545  0.09497520900631673  1.0000
  H   H15       1.0  0.24016294167008134  0.5899883816706974  0.7727244467010177  1.0000
  H   H16       1.0  0.8930356391735433  0.5083184024158489  0.5547525859068707  1.0000
  Zn  Zn1       1.0  0.933562757665947  0.585357432080011  0.40562934263096095  1.0000
  Zn  Zn2       1.0  0.11923065207894096  0.5832748841080824  0.4062556007916453  1.0000
  C   C28       1.0  0.026409730570130505  0.575760722829908  0.6695830843453074  1.0000
  C   C29       1.0  0.0263857174244939  0.5928733892660072  0.14230200131495116  1.0000
  C   C30       1.0  0.02794977051987079  0.8478479100658346  0.3992837383561869  1.0000
  C   C31       1.0  0.02484560390751711  0.32078446875569355  0.4126014300113845  1.0000
  O   O2        1.0  0.09686478302299935  0.5934328801056321  0.1963094743364839  1.0000
  O   O3        1.0  0.09684829427767205  0.5736195424297914  0.6160505150295245  1.0000
  O   O4        1.0  0.09809094643390898  0.7933333817973867  0.3977818723611996  1.0000
  O   O5        1.0  0.09562206755339048  0.3737190529212575  0.41457800853262117  1.0000
  O   O6        1.0  0.9571712788321655  0.7949132639791585  0.39730693466867706  1.0000
  O   O7        1.0  0.9559286368838327  0.575201158598272  0.6155754944083804  1.0000
  O   O8        1.0  0.9559451250942823  0.5950144644940139  0.19583271853598982  1.0000
  O   O9        1.0  0.954702409578713  0.37530062583874074  0.4141013609830062  1.0000
