data_image0
_chemical_formula_structural       NC9NC3OCH8C12SCH12C13NH12Zn2C4O8
_chemical_formula_sum              "N3 C43 O9 H32 S1 Zn2"
_cell_length_a       17.728193572023454
_cell_length_b       10.299776766347529
_cell_length_c       10.299780419254978
_cell_angle_alpha    85.57449051580878
_cell_angle_beta     90.69152596638013
_cell_angle_gamma    88.43488659094776

_space_group_name_H-M_alt    "P 1"
_space_group_IT_number       1

loop_
  _space_group_symop_operation_xyz
  'x, y, z'

loop_
  _atom_site_type_symbol
  _atom_site_label
  _atom_site_symmetry_multiplicity
  _atom_site_fract_x
  _atom_site_fract_y
  _atom_site_fract_z
  _atom_site_occupancy
  N   N1        1.0  0.7105327661408423  0.38661291651018526  0.5852847004774314  1.0000
  C   C1        1.0  0.6499227936135001  0.34918784583307705  0.5982881465703263  1.0000
  C   C2        1.0  0.5744717066161815  0.3026634925994782  0.6144721034345966  1.0000
  C   C3        1.0  0.5625861681397268  0.1746280048330422  0.6238875634642069  1.0000
  C   C4        1.0  0.48587911908273107  0.12517990764418485  0.6388359515788937  1.0000
  C   C5        1.0  0.4277195023234979  0.20785308237121106  0.6563081669644888  1.0000
  C   C6        1.0  0.349672777236056  0.16280994062281873  0.6780400356925744  1.0000
  C   C7        1.0  0.28832679738994854  0.2482707383509537  0.642582688801064  1.0000
  C   C8        1.0  0.21405359298080862  0.20897244458816044  0.6627286175654146  1.0000
  C   C9        1.0  0.1517288581457353  0.29696960274748196  0.6251970851300466  1.0000
  N   N2        1.0  0.10163318126460796  0.36771079190110356  0.5950252808256871  1.0000
  C   C10       1.0  0.2004947775974994  0.08409372328395494  0.7193859378609947  1.0000
  C   C11       1.0  0.2609418666859414  0.9989507717580955  0.7562518085782017  1.0000
  C   C12       1.0  0.3351114737233977  0.03775946828675571  0.7362354416758599  1.0000
  O   O1        1.0  0.4410614057685019  0.34163791719918835  0.6550176494493278  1.0000
  C   C13       1.0  0.5087860435865937  0.399007836961997  0.6064119973540868  1.0000
  H   H1        1.0  0.6095211614432343  0.10516710623185888  0.6217839141171599  1.0000
  H   H2        1.0  0.47823833365835705  0.021530669948950615  0.6368496512743207  1.0000
  H   H3        1.0  0.2982130943267303  0.34508644452395354  0.5981612833465859  1.0000
  H   H4        1.0  0.1432815011740884  0.052808935081388494  0.735524348671938  1.0000
  H   H5        1.0  0.2503187371226924  0.9027940258743331  0.8011343577081366  1.0000
  H   H6        1.0  0.3806455789811971  0.9705359765075259  0.7686519751420164  1.0000
  H   H7        1.0  0.4993263804582707  0.43491555107965874  0.502890869416692  1.0000
  H   H8        1.0  0.5216512741266898  0.4834052554440593  0.6629953577956491  1.0000
  C   C14       1.0  0.9061577554683319  0.9957931089425259  0.5901552608503731  1.0000
  C   C15       1.0  0.9106741426034294  0.9840426666260206  0.7267755486512407  1.0000
  C   C16       1.0  0.9128899740267434  0.8609535157304817  0.7960056846848023  1.0000
  C   C17       1.0  0.9105298399442942  0.7487618677667824  0.7267871443611916  1.0000
  C   C18       1.0  0.9060154684106556  0.7585202649949127  0.5901661574113835  1.0000
  C   C19       1.0  0.903854271950771  0.8824736987981842  0.5226149711961705  1.0000
  C   C20       1.0  0.9176594855092424  0.8495871816667718  0.940534327059592  1.0000
  C   C21       1.0  0.8744591459594144  0.7582307077379856  0.013497783855620497  1.0000
  C   C22       1.0  0.8789704794575082  0.7477670169483835  0.14951338371375555  1.0000
  C   C23       1.0  0.9264937528643858  0.8283907289984299  0.21436742628167593  1.0000
  C   C24       1.0  0.969873997219578  0.9191650189992591  0.14278145369753203  1.0000
  C   C25       1.0  0.9654733225774015  0.9299732480867687  0.006758195324153227  1.0000
  S   S1        1.0  0.9323656333855269  0.8144998144224217  0.388896226707146  1.0000
  C   C26       1.0  0.8565300255858632  0.9342310505770355  0.4065353401226801  1.0000
  H   H9        1.0  0.90446649627823  0.32772260791984453  0.5380974689209319  1.0000
  H   H10       1.0  0.9114383610503604  0.0708482957252561  0.7797505508293647  1.0000
  H   H11       1.0  0.9132617728623272  0.6536275458969234  0.7796150259943928  1.0000
  H   H12       1.0  0.9003705872795004  0.8907701521973803  0.4172182410815572  1.0000
  H   H13       1.0  0.9042576110851758  0.434786709556753  0.5381113723723081  1.0000
  H   H14       1.0  0.8364764608326655  0.6960921373001707  0.9654397764589377  1.0000
  H   H15       1.0  0.8452230766120935  0.6773478592281543  0.2043918959907411  1.0000
  H   H16       1.0  0.007053293212551553  0.9813986381401778  0.19240831585250617  1.0000
  H   H17       1.0  0.0001729978903568484  0.999977737858623  0.953316379620541  1.0000
  H   H18       1.0  0.871643795849376  0.029819690791600413  0.35803628024830825  1.0000
  H   H19       1.0  0.8477713313108063  0.9453566060524614  0.5115917800955951  1.0000
  H   H20       1.0  0.8034331877949322  0.9012556058558041  0.36309272331278397  1.0000
  C   C27       1.0  0.9061380024559805  0.3770693333861701  0.20880782206519677  1.0000
  C   C28       1.0  0.9607573809425571  0.47345771369384254  0.20150845215802682  1.0000
  C   C29       1.0  0.9883752469701551  0.522396566534562  0.08066443566519065  1.0000
  C   C30       1.0  0.9606537026685606  0.47363495545715334  0.9662056973800341  1.0000
  C   C31       1.0  0.9060352211720895  0.3772440124770291  0.9715135362272272  1.0000
  C   C32       1.0  0.8790811431217515  0.3295044897247441  0.0932765302169429  1.0000
  C   C33       1.0  0.046160404519684395  0.6243644982147407  0.07403396892692737  1.0000
  C   C34       1.0  0.041039447899033465  0.7291886118323069  0.9780821084003601  1.0000
  C   C35       1.0  0.09545263478941245  0.82507442070643  0.971927644938471  1.0000
  C   C36       1.0  0.15560907633857912  0.818463966553562  0.0621002780759623  1.0000
  C   C37       1.0  0.16145352146274397  0.7133260517057515  0.15701337971442952  1.0000
  C   C38       1.0  0.10705594269503814  0.6174147897487525  0.16334100210953892  1.0000
  C   C39       1.0  0.21518200236646703  0.9198014955255286  0.05313050781808414  1.0000
  N   N3        1.0  0.27303938400582783  0.8843536153885213  0.9616929828570986  1.0000
  H   H21       1.0  0.9812063921402633  0.5119748642301971  0.289888373548814  1.0000
  H   H22       1.0  0.9825236036610601  0.5097325878086016  0.8729435845865651  1.0000
  H   H23       1.0  0.8369450313070038  0.25514418468790145  0.09813910390232781  1.0000
  H   H24       1.0  0.8852087524555698  0.3405383313714738  0.6460804003434948  1.0000
  H   H25       1.0  0.9944965933799355  0.7377844049475059  0.9086213473555892  1.0000
  H   H26       1.0  0.09057732638579519  0.904709340941266  0.8969684625291032  1.0000
  H   H27       1.0  0.20827647852136044  0.7053689737340789  0.2259546048216907  1.0000
  H   H28       1.0  0.11324671606876537  0.53669914466553  0.2368670401433097  1.0000
  H   H29       1.0  0.1890886924175784  0.01608813770569117  0.019201901127041447  1.0000
  H   H30       1.0  0.2412046960117371  0.929854028133945  0.15063551598168745  1.0000
  H   H31       1.0  0.3111065723551789  0.960204483218775  0.9527030237075333  1.0000
  H   H32       1.0  0.3033301613506931  0.8025870946117795  0.0032183439496848965  1.0000
  Zn  Zn1       1.0  0.8233959088112932  0.38115470302312304  0.5881031209080054  1.0000
  Zn  Zn2       1.0  0.9887700647345194  0.3731584041141474  0.5922174974646565  1.0000
  C   C40       1.0  0.9060539097448097  0.37203743161890906  0.8273457388497325  1.0000
  C   C41       1.0  0.9061138693587246  0.38227722684634163  0.3529750519362446  1.0000
  C   C42       1.0  0.9060391566897059  0.6143476061004598  0.5849890283906969  1.0000
  C   C43       1.0  0.9061285662649812  0.13996549480804488  0.5953318302048048  1.0000
  O   O2        1.0  0.968864401446164  0.38098482396702443  0.4029202756450998  1.0000
  O   O3        1.0  0.968818535738793  0.367259848840815  0.7805228579029028  1.0000
  O   O4        1.0  0.9688057762618518  0.5629284203816316  0.5848180784640333  1.0000
  O   O5        1.0  0.9688771045034993  0.18531626442271246  0.598624956309571  1.0000
  O   O6        1.0  0.8432888126082309  0.568996845444715  0.5816956606522257  1.0000
  O   O7        1.0  0.8433015717999373  0.37332983419080157  0.7774003708707049  1.0000
  O   O8        1.0  0.8433474377763975  0.38705476370099823  0.3997962272784864  1.0000
  O   O9        1.0  0.843360140819256  0.19138619489033862  0.5955010053064913  1.0000
