data_image0
_chemical_formula_structural       NC7OC8NH10C6H6C12H8Zn2C4O8
_chemical_formula_sum              "N2 C37 O9 H24 Zn2"
_cell_length_a       17.484556032080143
_cell_length_b       10.30288869885445
_cell_length_c       13.024585202197208
_cell_angle_alpha    85.80961696087208
_cell_angle_beta     94.64658029263958
_cell_angle_gamma    90.07280632578974

_space_group_name_H-M_alt    "P 1"
_space_group_IT_number       1

loop_
  _space_group_symop_operation_xyz
  'x, y, z'

loop_
  _atom_site_type_symbol
  _atom_site_label
  _atom_site_symmetry_multiplicity
  _atom_site_fract_x
  _atom_site_fract_y
  _atom_site_fract_z
  _atom_site_occupancy
  N   N1        1.0  0.6621382494297011  0.4151258959777298  0.8750927955167126  1.0000
  C   C1        1.0  0.6162795994293327  0.3357713852381874  0.8878976788236699  1.0000
  C   C2        1.0  0.5592360827116306  0.23706616794050925  0.9038255752248325  1.0000
  C   C3        1.0  0.5515062240693077  0.1347219162479809  0.8387937083370788  1.0000
  C   C4        1.0  0.4960673705195988  0.03891766495556159  0.8542924898188029  1.0000
  C   C5        1.0  0.44773543688504114  0.044252404224830455  0.9345417548383577  1.0000
  C   C6        1.0  0.4559407216309864  0.14720062406509293  3.710014017288674e-05  1.0000
  C   C7        1.0  0.5113839442587709  0.2430298165213289  0.9844878915771863  1.0000
  O   O1        1.0  0.3928782300760711  0.9457405928995735  0.9463288420171801  1.0000
  C   C8        1.0  0.33559153778436207  0.9419475623225302  0.01865880230249628  1.0000
  C   C9        1.0  0.2757307539593195  0.04581964434375262  0.9888590677975444  1.0000
  C   C10       1.0  0.2546183834996502  0.13078473516723133  0.061375383240697474  1.0000
  C   C11       1.0  0.19861018249484957  0.22645202661647  0.03342082290048921  1.0000
  C   C12       1.0  0.1628226061172426  0.23748620670987197  0.9330041464417325  1.0000
  C   C13       1.0  0.18310177834634614  0.15219627779262201  0.8606930331828904  1.0000
  C   C14       1.0  0.23911062836849342  0.05652288173530717  0.888567445534608  1.0000
  C   C15       1.0  0.10518157650078382  0.3360058104734384  0.9042759420734385  1.0000
  N   N2        1.0  0.05884198673198193  0.4152129689315531  0.8811790876492064  1.0000
  H   H1        1.0  0.5882554738280079  0.1289861192228623  0.776162098408281  1.0000
  H   H2        1.0  0.4904575491997948  0.9602224749214218  0.803506663473861  1.0000
  H   H3        1.0  0.4201400656741799  0.1540648145415915  0.06324452463392272  1.0000
  H   H4        1.0  0.516977999890079  0.32165948593887617  0.03543436719920767  1.0000
  H   H5        1.0  0.30700845384773195  0.8457023958134533  0.01817907238239381  1.0000
  H   H6        1.0  0.3629281331832742  0.950247663231171  0.097969694963298  1.0000
  H   H7        1.0  0.2816148734354201  0.12336495567928595  0.13941087578962819  1.0000
  H   H8        1.0  0.18318010298875056  0.2916522958992991  0.09008342731771771  1.0000
  H   H9        1.0  0.1555971143506833  0.15955609981940255  0.7828888180621298  1.0000
  H   H10       1.0  0.254094428836112  0.9909608966970221  0.8319597398263548  1.0000
  C   C16       1.0  0.8604167200257917  0.03392206849147584  0.8781054820851926  1.0000
  C   C17       1.0  0.9384988368706598  0.029767866139513304  0.9134548644970204  1.0000
  C   C18       1.0  0.9772405000599069  0.9108274592121047  0.9309938717330825  1.0000
  C   C19       1.0  0.9387011167301469  0.79475281541864  0.913546336843184  1.0000
  C   C20       1.0  0.8605712983815007  0.7964068757316267  0.878175445737907  1.0000
  C   C21       1.0  0.821838365515489  0.9165666176958123  0.8606402936921216  1.0000
  H   H11       1.0  0.8308330044642599  0.36279114319820105  0.864711125409128  1.0000
  H   H12       1.0  0.9697330431084672  0.11836272544556278  0.9275952402391997  1.0000
  H   H13       1.0  0.0374142716893009  0.9085974918794455  0.9582355389395075  1.0000
  H   H14       1.0  0.9700733713264241  0.7038071247543406  0.9277490155044793  1.0000
  H   H15       1.0  0.7616317977326982  0.9188406642147567  0.8333836873516298  1.0000
  H   H16       1.0  0.7134109721529248  0.5923585162862831  0.8115522206974649  1.0000
  C   C22       1.0  0.8448037716319472  0.41360285910171846  0.5756807221747471  1.0000
  C   C23       1.0  0.8279024040229842  0.5173433634834209  0.5010008241311024  1.0000
  C   C24       1.0  0.8540555425242653  0.5153614231256332  0.40252179653858944  1.0000
  C   C25       1.0  0.8970473173994761  0.40929100360136994  0.37672474073806284  1.0000
  C   C26       1.0  0.9146759664793084  0.3062893581962809  0.45134267643660025  1.0000
  C   C27       1.0  0.8885613424016321  0.3081623545930423  0.5498655489550243  1.0000
  C   C28       1.0  0.9258339393222002  0.40809911177054475  0.27296621475052363  1.0000
  C   C29       1.0  0.005667033344083144  0.40388392751552  0.2665084466262806  1.0000
  C   C30       1.0  0.03643968406498588  0.4107751791378391  0.17075684997797194  1.0000
  C   C31       1.0  0.9880259839918935  0.42223840966840487  0.08016650566090647  1.0000
  C   C32       1.0  0.9085859501586078  0.425239814961619  0.08488757160171811  1.0000
  C   C33       1.0  0.8761842208541807  0.4167260859885084  0.18060017973952208  1.0000
  H   H17       1.0  0.815744897967668  0.31222366741036084  0.8251683289491479  1.0000
  H   H18       1.0  0.7946097513748128  0.6002120028507176  0.5186801731460522  1.0000
  H   H19       1.0  0.8408941657125371  0.5966343096350355  0.34632966669979093  1.0000
  H   H20       1.0  0.9482896852220893  0.22409161446056827  0.4329869514262028  1.0000
  H   H21       1.0  0.9027122245748781  0.2270275440323734  0.605754725806224  1.0000
  H   H22       1.0  0.044337248456119534  0.3975573712560793  0.33604802259135896  1.0000
  H   H23       1.0  0.09801336410335715  0.4082132973357022  0.16682010305908523  1.0000
  H   H24       1.0  0.6877447371481553  0.46193197880668624  0.09317857913988914  1.0000
  Zn  Zn1       1.0  0.7766186898991014  0.41514758489430736  0.876855124027254  1.0000
  Zn  Zn2       1.0  0.9443619789127627  0.4151807228319746  0.8794252241107016  1.0000
  C   C34       1.0  0.8702499111602917  0.41096369159995855  0.0662569744865761  1.0000
  C   C35       1.0  0.8507325949793846  0.41936625510755926  0.6900235029594385  1.0000
  C   C36       1.0  0.8603252268591102  0.6522598181629446  0.8740577906310244  1.0000
  C   C37       1.0  0.8606572245738865  0.17806856901140009  0.8822227407073001  1.0000
  O   O2        1.0  0.9163800650861603  0.42130741519504106  0.7293733237927058  1.0000
  O   O3        1.0  0.9319157005200863  0.4090467014992935  0.028857503565274167  1.0000
  O   O4        1.0  0.9239005898530421  0.6038963806648632  0.8736552897364449  1.0000
  O   O5        1.0  0.9243951145094874  0.2264577449067009  0.8845754595185437  1.0000
  O   O6        1.0  0.7965854970595441  0.6038705628096583  0.8717048877369453  1.0000
  O   O7        1.0  0.8046006051904352  0.4090224431673384  0.0269070467909982  1.0000
  O   O8        1.0  0.7890649055592649  0.421283105228012  0.7274216286843112  1.0000
  O   O9        1.0  0.7970799589834764  0.22643342605251912  0.8826238416306741  1.0000
