data_image0
_chemical_formula_structural       NC5NC3F3CH3C6BrH5C9H8Zn2C4O8
_chemical_formula_sum              "N2 C28 F3 H16 Br1 Zn2 O8"
_cell_length_a       13.85151926108384
_cell_length_b       9.276564384272257
_cell_length_c       9.275155815604961
_cell_angle_alpha    86.0004437210585
_cell_angle_beta     90.35750761735815
_cell_angle_gamma    90.58593481197379

_space_group_name_H-M_alt    "P 1"
_space_group_IT_number       1

loop_
  _space_group_symop_operation_xyz
  'x, y, z'

loop_
  _atom_site_type_symbol
  _atom_site_label
  _atom_site_symmetry_multiplicity
  _atom_site_fract_x
  _atom_site_fract_y
  _atom_site_fract_z
  _atom_site_occupancy
  N   N1        1.0  0.9131492734208057  0.5645261339054843  0.4089248934497043  1.0000
  C   C1        1.0  0.8410222258916465  0.5559844860947603  0.4713846026955925  1.0000
  C   C2        1.0  0.7512905191433983  0.5453575080418884  0.5490934162597227  1.0000
  C   C3        1.0  0.6635076457869294  0.5539282126301956  0.47357854989224024  1.0000
  C   C4        1.0  0.5762385294645727  0.5453574947241207  0.5490933962170075  1.0000
  C   C5        1.0  0.48600297428139255  0.5559845030537018  0.47138469672746264  1.0000
  N   N2        1.0  0.4134710879949133  0.5645260969263812  0.4089249989099719  1.0000
  C   C6        1.0  0.5767369386397199  0.527219660705819  0.7002999562877197  1.0000
  C   C7        1.0  0.6645123989520331  0.5154701599038756  0.7770793295495859  1.0000
  C   C8        1.0  0.6650963937168679  0.501297401460774  0.9400755149732579  1.0000
  F   F1        1.0  0.7457372984144658  0.4269303232426753  0.9917284415870186  1.0000
  F   F2        1.0  0.5838684839649347  0.426930293499552  0.9917285408864219  1.0000
  F   F3        1.0  0.6662451034133217  0.6375509043195224  0.9916682834919415  1.0000
  C   C9        1.0  0.7518072649117453  0.5272195656255425  0.70029997598044  1.0000
  H   H1        1.0  0.6631157719417521  0.5681313601951938  0.35650893294537633  1.0000
  H   H2        1.0  0.5088224724545412  0.522538291963462  0.7579429645892486  1.0000
  H   H3        1.0  0.8201392252461588  0.5225382107146499  0.7579429236261472  1.0000
  C   C10       1.0  0.16040770511290095  0.14104833974248998  0.4092934709653553  1.0000
  C   C11       1.0  0.14747755716831357  0.22341313025420928  0.27756816180412835  1.0000
  C   C12       1.0  0.14353727999958135  0.15730035983684854  0.14707323373838777  1.0000
  C   C13       1.0  0.15249519859799232  0.007882455402448363  0.14582578534361668  1.0000
  C   C14       1.0  0.16371615287831975  0.9238071803200705  0.27555918524541423  1.0000
  C   C15       1.0  0.16622186317641327  0.9879929008675324  0.4085687964116349  1.0000
  Br  Br1       1.0  0.14781229785428818  0.9179824920729963  0.9667639439608391  1.0000
  H   H4        1.0  0.13309114748729584  0.4056187729113527  0.6436049329233164  1.0000
  H   H5        1.0  0.14270285201457678  0.34004827248331426  0.275100798447228  1.0000
  H   H6        1.0  0.13443636896355926  0.2226559661373009  0.046682412392041066  1.0000
  H   H7        1.0  0.16816982121630947  0.8075404360046834  0.2724518960359612  1.0000
  H   H8        1.0  0.22042995968419743  0.6919935017961566  0.633037814614883  1.0000
  C   C16       1.0  0.16152089774159809  0.5608755276271264  0.9857030415676755  1.0000
  C   C17       1.0  0.08647979968908583  0.6311427858088521  0.05345778433031546  1.0000
  C   C18       1.0  0.01797086684782135  0.7109941382173381  0.972104687590877  1.0000
  C   C19       1.0  0.023233846691495866  0.7222503323483387  0.8215132601121615  1.0000
  C   C20       1.0  0.09632687998785716  0.6512082721435374  0.7520508152479284  1.0000
  C   C21       1.0  0.16510864634978403  0.5681656973127511  0.8321592301732923  1.0000
  C   C22       1.0  0.9527965672505548  0.8054707877803842  0.7378446622168497  1.0000
  C   C23       1.0  0.893818059731763  0.8751565543489928  0.6677569878559368  1.0000
  C   C24       1.0  0.8222582514031125  0.9597084495612236  0.5827059689190457  1.0000
  H   H9        1.0  0.38480397170465275  0.4445263619845572  0.09876046155172413  1.0000
  H   H10       1.0  0.08211505413581002  0.6271453169896679  0.1702527421027653  1.0000
  H   H11       1.0  0.9613722410028593  0.7651961541517622  0.026871336951809877  1.0000
  H   H12       1.0  0.09815718695251242  0.6579893776428838  0.6348987177702279  1.0000
  H   H13       1.0  0.31405148384731674  0.48465382002158724  0.5586483112707841  1.0000
  H   H14       1.0  0.8419046665953509  0.9638518095254802  0.4667034382795871  1.0000
  H   H15       1.0  0.7500035898879802  0.9083562076747332  0.5977761776807928  1.0000
  H   H16       1.0  0.8205794111696312  0.07106036706532937  0.6191154249646424  1.0000
  Zn  Zn1       1.0  0.05753135052075223  0.5645223449668899  0.40893323432586515  1.0000
  Zn  Zn2       1.0  0.2690889625001034  0.5645182246751919  0.40892841921453704  1.0000
  C   C25       1.0  0.16438890805015705  0.5610428034204549  0.6721658361769429  1.0000
  C   C26       1.0  0.16223372826375826  0.567999586943033  0.14569595721133344  1.0000
  C   C27       1.0  0.1650935480352771  0.8278529092655971  0.4029626138297886  1.0000
  C   C28       1.0  0.16152900452055707  0.3011877491773862  0.41489925788077886  1.0000
  O   O1        1.0  0.2427579287141326  0.5703826313739595  0.1993892193277369  1.0000
  O   O2        1.0  0.24443203075541586  0.5586555403115109  0.6184685055537145  1.0000
  O   O3        1.0  0.2449999605263618  0.774108087983745  0.40108499759266025  1.0000
  O   O4        1.0  0.24218992636569178  0.35493009308843293  0.4167726192190593  1.0000
  O   O5        1.0  0.08443031446091265  0.7741104765565594  0.4010890343154039  1.0000
  O   O6        1.0  0.08386239625379721  0.5586596608077407  0.6184724639482284  1.0000
  O   O7        1.0  0.08218828658722144  0.5703866866934797  0.19939144498460815  1.0000
  O   O8        1.0  0.08162028462202439  0.35493413902415627  0.4167749529397238  1.0000
