data_image0
_chemical_formula_structural       NC9NC3SH6C9H10C7F3H4Zn2C4O8
_chemical_formula_sum              "N2 C32 S1 H20 F3 Zn2 O8"
_cell_length_a       16.77567553997237
_cell_length_b       9.272676604525723
_cell_length_c       9.272721663655245
_cell_angle_alpha    86.12112079025516
_cell_angle_beta     90.90861439337802
_cell_angle_gamma    91.44448428757873

_space_group_name_H-M_alt    "P 1"
_space_group_IT_number       1

loop_
  _space_group_symop_operation_xyz
  'x, y, z'

loop_
  _atom_site_type_symbol
  _atom_site_label
  _atom_site_symmetry_multiplicity
  _atom_site_fract_x
  _atom_site_fract_y
  _atom_site_fract_z
  _atom_site_occupancy
  N   N1        1.0  0.7513327081161627  0.5901687155377995  0.42423282549891783  1.0000
  C   C1        1.0  0.6971104720613253  0.6452192994249338  0.470676139362167  1.0000
  C   C2        1.0  0.6298198405184555  0.7135334315582905  0.5283087410666916  1.0000
  C   C3        1.0  0.6330112538108225  0.8119750154007435  0.6343058641692254  1.0000
  C   C4        1.0  0.5578095003912963  0.8604590385165587  0.6695176759198356  1.0000
  C   C5        1.0  0.4950889552354935  0.7999836291038702  0.5908316364661792  1.0000
  C   C6        1.0  0.4088144531326068  0.8290014880459128  0.6030130195789074  1.0000
  C   C7        1.0  0.351197151840585  0.7402359382445807  0.5378865730312936  1.0000
  C   C8        1.0  0.2697544478741329  0.7670141562112559  0.548884478874542  1.0000
  C   C9        1.0  0.2114459549536829  0.6752758553174976  0.48219509848552516  1.0000
  N   N2        1.0  0.16458306965433497  0.601531409483512  0.42858668816621415  1.0000
  C   C10       1.0  0.24510019005980746  0.8829051309498088  0.6248315061363179  1.0000
  C   C11       1.0  0.3016242101507525  0.9718441176380883  0.6894461803370275  1.0000
  C   C12       1.0  0.38291307253922335  0.9454712186612  0.6787772422936695  1.0000
  S   S1        1.0  0.5344996974931451  0.6859562332572893  0.4780386988487995  1.0000
  H   H1        1.0  0.6878599826476927  0.8476530099076488  0.6852901051924549  1.0000
  H   H2        1.0  0.5503601201495861  0.9363408408917747  0.7514602459457536  1.0000
  H   H3        1.0  0.3692161909201231  0.6496080307363336  0.47923415636779376  1.0000
  H   H4        1.0  0.1822773386745908  0.9045686818040648  0.6339112578727086  1.0000
  H   H5        1.0  0.2824190967409519  0.06179080677684112  0.7477429624548003  1.0000
  H   H6        1.0  0.4249892461865283  0.017549543179829374  0.7288064885475241  1.0000
  C   C13       1.0  0.9556931064683558  0.17228899538635756  0.4245438511778962  1.0000
  C   C14       1.0  0.9243683498921871  0.2362009424355882  0.5436363235926516  1.0000
  C   C15       1.0  0.9003568816620536  0.15209785773813775  0.6663300163781889  1.0000
  C   C16       1.0  0.9068961657208486  0.0015716314761355927  0.6740601617218969  1.0000
  C   C17       1.0  0.9369089117758728  0.9361676711409902  0.5538428934979167  1.0000
  C   C18       1.0  0.9602303318817886  0.019400323678328668  0.4282882168342057  1.0000
  C   C19       1.0  0.880111149762462  0.9180012996201632  0.8122955007533882  1.0000
  C   C20       1.0  0.8397383603961011  0.7707156938953973  0.7975130083671391  1.0000
  C   C21       1.0  0.9242423264043486  0.7808272241230035  0.8594166186186531  1.0000
  H   H7        1.0  0.9722241556151702  0.4702347192306673  0.18842637336597545  1.0000
  H   H8        1.0  0.9201601393373516  0.3526069775819074  0.5434533680057854  1.0000
  H   H9        1.0  0.8771853395955288  0.20541900284365533  0.7566879924489984  1.0000
  H   H10       1.0  0.9407196999959209  0.8198796767754312  0.5552220575023767  1.0000
  H   H11       1.0  0.9791635191755891  0.9411109256667836  0.07541315426394268  1.0000
  H   H12       1.0  0.857990331504305  0.978028858541739  0.9028523048869712  1.0000
  H   H13       1.0  0.8354904171349581  0.7307276629177917  0.6875404000011747  1.0000
  H   H14       1.0  0.7939388289106888  0.7411440589768745  0.8802190275429941  1.0000
  H   H15       1.0  0.9713021610745887  0.7468527538501334  0.7871320378346673  1.0000
  H   H16       1.0  0.9278293408645109  0.7571592901975914  0.9783213481603108  1.0000
  C   C22       1.0  0.9558393687805753  0.5934472299231288  0.0029402313601047986  1.0000
  C   C23       1.0  0.9891450321297325  0.4764032081125784  0.08549865128029088  1.0000
  C   C24       1.0  0.02948564651743646  0.3681308536065965  0.01954128476712857  1.0000
  C   C25       1.0  0.034067088163478365  0.3748977866371497  0.8684687183130801  1.0000
  C   C26       1.0  0.0002727565787494749  0.48892578481306304  0.784923743591396  1.0000
  C   C27       1.0  0.9600840610860012  0.5982421255725852  0.84989179759362  1.0000
  C   C28       1.0  0.06292887451057383  0.24155294795609938  0.10968454515111413  1.0000
  F   F1        1.0  0.09000745291148426  0.2842118963981006  0.24238571696021705  1.0000
  F   F2        1.0  0.12617134668452026  0.18364034127441253  0.04097059555972793  1.0000
  F   F3        1.0  0.003830473545497484  0.13612163680983014  0.1316445601433347  1.0000
  H   H17       1.0  0.9071336235668112  0.9355253731360328  0.08014526646803843  1.0000
  H   H18       1.0  0.06308634581400896  0.2909786430784449  0.8144968626684861  1.0000
  H   H19       1.0  0.003692176990953032  0.4894810474057465  0.6683071652956074  1.0000
  H   H20       1.0  0.8182901859418503  0.8375847783423603  0.728168636849071  1.0000
  Zn  Zn1       1.0  0.8705878597848475  0.5934439398053042  0.425497575678877  1.0000
  Zn  Zn2       1.0  0.045327909350414856  0.5982444858158406  0.42733372862535113  1.0000
  C   C29       1.0  0.9592491516570755  0.591589657953168  0.6897744164355533  1.0000
  C   C30       1.0  0.95666853609102  0.6001006407974221  0.16305705750364496  1.0000
  C   C31       1.0  0.9593397731161463  0.8592456159004532  0.4218338332689775  1.0000
  C   C32       1.0  0.9565778461090118  0.33244294872249314  0.4309977092671602  1.0000
  O   O1        1.0  0.023259716656161448  0.6041490758952026  0.21749050970268533  1.0000
  O   O2        1.0  0.02528161759418413  0.5911836357372211  0.6367341419052768  1.0000
  O   O3        1.0  0.025353909153258854  0.807319190681774  0.42037022250981715  1.0000
  O   O4        1.0  0.023187364983513925  0.3880135290184478  0.43385432039140875  1.0000
  O   O5        1.0  0.892728344521516  0.8036748949660334  0.4189769832786523  1.0000
  O   O6        1.0  0.8926560618551458  0.5875410725124612  0.635340833443006  1.0000
  O   O7        1.0  0.8906341520116737  0.6005064525935089  0.21609546722412332  1.0000
  O   O8        1.0  0.8905618008223664  0.38437089601229235  0.432459385985416  1.0000
