data_image0
_chemical_formula_structural       NC5NC3BrH3C6NH7C6BrH4Zn2C4O8
_chemical_formula_sum              "N3 C24 Br2 H14 Zn2 O8"
_cell_length_a       13.839083392302014
_cell_length_b       9.274771166103582
_cell_length_c       9.276567756262418
_cell_angle_alpha    86.01325923358289
_cell_angle_beta     90.18696188566506
_cell_angle_gamma    90.6230172981901

_space_group_name_H-M_alt    "P 1"
_space_group_IT_number       1

loop_
  _space_group_symop_operation_xyz
  'x, y, z'

loop_
  _atom_site_type_symbol
  _atom_site_label
  _atom_site_symmetry_multiplicity
  _atom_site_fract_x
  _atom_site_fract_y
  _atom_site_fract_z
  _atom_site_occupancy
  N   N1        1.0  0.9173503436955136  0.5636832925062303  0.4077555080073727  1.0000
  C   C1        1.0  0.8449088592308334  0.5000439411942785  0.41033529717237127  1.0000
  C   C2        1.0  0.754653368412573  0.42085458336255344  0.4135452892103495  1.0000
  C   C3        1.0  0.6676223754449389  0.49705194131105074  0.41045677403099634  1.0000
  C   C4        1.0  0.5790603551068685  0.42232725452571884  0.413485537296844  1.0000
  C   C5        1.0  0.48984315636882514  0.5008759254122654  0.41030155526492096  1.0000
  N   N2        1.0  0.41812413317621555  0.5640228969436811  0.40774168635223246  1.0000
  C   C6        1.0  0.5774613466765809  0.2710937181919155  0.4196154894565487  1.0000
  C   C7        1.0  0.6640464572757959  0.19477509586820305  0.4227088285275513  1.0000
  C   C8        1.0  0.7527995806598817  0.26878568316825935  0.41970903004537363  1.0000
  Br  Br1       1.0  0.8694432459963166  0.15869912313960466  0.4241712597010301  1.0000
  H   H1        1.0  0.6688063807377213  0.6142451305734895  0.40570638057040154  1.0000
  H   H2        1.0  0.509360979006847  0.21224314436534783  0.4220006133411507  1.0000
  H   H3        1.0  0.6621009727521066  0.07783110072121757  0.42744874404149  1.0000
  C   C9        1.0  0.16477702805684813  0.14026221658956395  0.40853405801715503  1.0000
  C   C10       1.0  0.14225194201452207  0.22229333820817399  0.2796840980165003  1.0000
  C   C11       1.0  0.12874685328673618  0.15596443013524897  0.150016388448438  1.0000
  C   C12       1.0  0.13781539691392972  0.006217758991954098  0.14825943951439702  1.0000
  C   C13       1.0  0.1585496786514189  0.9228486538515253  0.27533941860025357  1.0000
  C   C14       1.0  0.17070665771360982  0.9874330103421154  0.40697567424409775  1.0000
  N   N3        1.0  0.10681226289259338  0.24108157613668602  0.01975026963861137  1.0000
  H   H4        1.0  0.2742331877035389  0.22308612737958944  0.7238680543066761  1.0000
  H   H5        1.0  0.1373785699449417  0.3388773191742407  0.27913075599784554  1.0000
  H   H6        1.0  0.1278819319788087  0.9537463830564799  0.0484932066109609  1.0000
  H   H7        1.0  0.16279882239022014  0.8066470917642119  0.27121273754339875  1.0000
  H   H8        1.0  0.24051817834539668  0.6925159045045808  0.6215145695918272  1.0000
  H   H9        1.0  0.10015457420068197  0.35315050422847594  0.019703654084661567  1.0000
  H   H10       1.0  0.09697509304202923  0.19265068805305097  0.9223536073172007  1.0000
  C   C15       1.0  0.1667904779967688  0.5597016371410009  0.9846357497535746  1.0000
  C   C16       1.0  0.08116594672547905  0.5943689771724976  0.055185071429313386  1.0000
  C   C17       1.0  0.9999184828535732  0.6409210707324549  0.9764005899886281  1.0000
  C   C18       1.0  0.002769955792745855  0.6537487846678367  0.8258810764284394  1.0000
  C   C19       1.0  0.08648921731701664  0.6175219475197573  0.7536076109626282  1.0000
  C   C20       1.0  0.16869322562640643  0.567993599235801  0.8308739705822017  1.0000
  Br  Br2       1.0  0.8915761449260455  0.718622679809676  0.7185144446972993  1.0000
  H   H11       1.0  0.2988040107201593  0.42877391582485397  0.2757072933215865  1.0000
  H   H12       1.0  0.9349659289511304  0.6683790371342944  0.03266917898379473  1.0000
  H   H13       1.0  0.08638871165890905  0.6248901304469727  0.6365435976413272  1.0000
  H   H14       1.0  0.32758019352249335  0.5532064604605325  0.5515022616266592  1.0000
  Zn  Zn1       1.0  0.06186283663594771  0.5637775091708617  0.4077598535997611  1.0000
  Zn  Zn2       1.0  0.27361157621062326  0.5639169730965301  0.4077491871823732  1.0000
  C   C21       1.0  0.1682911608174458  0.5606797352905868  0.6709273822553873  1.0000
  C   C22       1.0  0.16718557737574402  0.5670165699194363  0.1445817964830056  1.0000
  C   C23       1.0  0.1695679360336606  0.8272434021587838  0.401528496056772  1.0000
  C   C24       1.0  0.16590871794706907  0.30045117071000416  0.41398076269178596  1.0000
  O   O1        1.0  0.24767567542063662  0.5695181610102122  0.19825711461708123  1.0000
  O   O2        1.0  0.24851344802824382  0.5582829018389819  0.6172435557864417  1.0000
  O   O3        1.0  0.2495433802728864  0.773536447959593  0.39970204643475005  1.0000
  O   O4        1.0  0.24664567074980748  0.3542646241021854  0.41579851591871575  1.0000
  O   O5        1.0  0.08882866983730442  0.7734298581191104  0.3997105248594765  1.0000
  O   O6        1.0  0.08779874954566358  0.5581780442936375  0.6172519541970614  1.0000
  O   O7        1.0  0.08696097275544434  0.5694132362241999  0.19826378078585824  1.0000
  O   O8        1.0  0.08593096825134337  0.3541596900574928  0.41580529013360823  1.0000
