data_image0
_chemical_formula_structural       NC9NC3SH6C6NO2H5C9H9Zn2C4O8
_chemical_formula_sum              "N3 C31 S1 H20 O10 Zn2"
_cell_length_a       16.77567553997237
_cell_length_b       9.273392599741053
_cell_length_c       9.272679976505533
_cell_angle_alpha    86.14793757912345
_cell_angle_beta     90.7858477527611
_cell_angle_gamma    90.29770283283837

_space_group_name_H-M_alt    "P 1"
_space_group_IT_number       1

loop_
  _space_group_symop_operation_xyz
  'x, y, z'

loop_
  _atom_site_type_symbol
  _atom_site_label
  _atom_site_symmetry_multiplicity
  _atom_site_fract_x
  _atom_site_fract_y
  _atom_site_fract_z
  _atom_site_occupancy
  N   N1        1.0  0.7355711105047252  0.5858883739417358  0.420847666054885  1.0000
  C   C1        1.0  0.6806841831302556  0.6410418569992329  0.46715387669701064  1.0000
  C   C2        1.0  0.6125687142028005  0.7094836790066569  0.5246163424698826  1.0000
  C   C3        1.0  0.6145444789836404  0.8081663155031382  0.6303637732473122  1.0000
  C   C4        1.0  0.5387640284464494  0.8567268139152184  0.6654559578730235  1.0000
  C   C5        1.0  0.47680628284176346  0.7960695854841988  0.5869259865174702  1.0000
  C   C6        1.0  0.3901959099672143  0.825111106487855  0.5990375256327984  1.0000
  C   C7        1.0  0.3336388771112992  0.7362039034894403  0.5341302249998556  1.0000
  C   C8        1.0  0.25188651213161845  0.7630033523829343  0.5450637254747075  1.0000
  C   C9        1.0  0.1946730673917134  0.6711201910930227  0.478600708311798  1.0000
  N   N2        1.0  0.14869044353950872  0.5972592989917769  0.4251742615256662  1.0000
  C   C10       1.0  0.2258586868660084  0.8790566911710944  0.6207264294451076  1.0000
  C   C11       1.0  0.281321120052148  0.968136019175529  0.685121655530384  1.0000
  C   C12       1.0  0.3629147648515765  0.9417426146177986  0.6745161159691416  1.0000
  S   S1        1.0  0.5176133717671175  0.6817877987054326  0.4744203050970381  1.0000
  H   H1        1.0  0.6689378098526224  0.8439629189951051  0.68125504099415  1.0000
  H   H2        1.0  0.5303773099105682  0.9327950156113645  0.7472060106999656  1.0000
  H   H3        1.0  0.3527311888388333  0.6454508626765966  0.4757000063303342  1.0000
  H   H4        1.0  0.16278510499085608  0.9007378714252632  0.6297540413330828  1.0000
  H   H5        1.0  0.2610507009504113  0.058207112936432985  0.743197893034855  1.0000
  H   H6        1.0  0.4041333559068431  0.013928867542052798  0.7243679766718714  1.0000
  C   C13       1.0  0.944561186953159  0.1681047853086941  0.42212985389171975  1.0000
  C   C14       1.0  0.9339132371869298  0.25008677985171524  0.2903226617565269  1.0000
  C   C15       1.0  0.9162485421723779  0.18347236165269787  0.1632206397063969  1.0000
  C   C16       1.0  0.90864951178908  0.03285723689801378  0.1643795244755617  1.0000
  C   C17       1.0  0.9205371051256205  0.949732816518912  0.29519436907839713  1.0000
  C   C18       1.0  0.9397081072562957  0.015032095553211049  0.42390460281997444  1.0000
  N   N3        1.0  0.8897284643689133  0.9647564241733907  0.03303698009835122  1.0000
  O   O1        1.0  0.8787862320928663  0.046512170605835124  0.9049306068269786  1.0000
  O   O2        1.0  0.8827096512266195  0.8306318555797503  0.033193630521159756  1.0000
  H   H7        1.0  0.9296620526804075  0.2470536018676743  0.7758123346817297  1.0000
  H   H8        1.0  0.9373819664741233  0.3669899784070527  0.2860995310018124  1.0000
  H   H9        1.0  0.9077297302807877  0.2503490150466754  0.06404539426445233  1.0000
  H   H10       1.0  0.9166906783762576  0.8330331448931185  0.2961803149055662  1.0000
  H   H11       1.0  0.9323958291430278  0.7186913933535982  0.662966498395116  1.0000
  C   C19       1.0  0.940537990334821  0.588118776049316  0.9996305100219994  1.0000
  C   C20       1.0  0.9952206939079233  0.5004086566801116  0.08027714474077507  1.0000
  C   C21       1.0  0.05376190426121962  0.42449225180103145  0.012122147453841324  1.0000
  C   C22       1.0  0.05959959335405276  0.4337908187033847  0.8613407295570608  1.0000
  C   C23       1.0  0.003971293715523409  0.5195174694301508  0.7792956961093962  1.0000
  C   C24       1.0  0.94373129034246  0.5950181597235935  0.8464040289170249  1.0000
  C   C25       1.0  0.1256278275617697  0.3487266874187504  0.7956967529029613  1.0000
  C   C26       1.0  0.10702535930378976  0.2822099050123197  0.6532598021838245  1.0000
  C   C27       1.0  0.1623527723305489  0.4128744904728317  0.6562991124470918  1.0000
  H   H12       1.0  0.8199563538015172  0.682315082335208  0.27152871166878545  1.0000
  H   H13       1.0  0.09540967349813557  0.35898557304229967  0.07804707554204704  1.0000
  H   H14       1.0  0.005718658554779268  0.5258005493440504  0.6625485307517582  1.0000
  H   H15       1.0  0.7619825150919004  0.7256990396083485  0.7300902732521561  1.0000
  H   H16       1.0  0.16766133796661853  0.28500267284548175  0.8681834105263588  1.0000
  H   H17       1.0  0.047674839065592334  0.3051886437121958  0.6030096637926765  1.0000
  H   H18       1.0  0.1385821158207865  0.17924710556126056  0.6390725167459896  1.0000
  H   H19       1.0  0.13664932006839248  0.5151598073436516  0.6077787551860028  1.0000
  H   H20       1.0  0.22625534450676987  0.38627022636525976  0.6438844194413771  1.0000
  Zn  Zn1       1.0  0.854788482517267  0.5891659950789402  0.42210455471132863  1.0000
  Zn  Zn2       1.0  0.029473178622628323  0.593970010436546  0.4239291883751857  1.0000
  C   C28       1.0  0.9431588371225049  0.5879691478789663  0.68633360289504  1.0000
  C   C29       1.0  0.9411047216762944  0.5951687307602509  0.15970030543952962  1.0000
  C   C30       1.0  0.9405996712756525  0.8548979080876761  0.4178237663482464  1.0000
  C   C31       1.0  0.9436638381332343  0.3282382369901544  0.4282102146001456  1.0000
  O   O3        1.0  0.007586889736644453  0.5993515675580006  0.21411361682004126  1.0000
  O   O4        1.0  0.00925831614600914  0.5874313563220577  0.6333047289315348  1.0000
  O   O5        1.0  0.007190869366219487  0.8029796936041615  0.4164811299759354  1.0000
  O   O6        1.0  0.009654276441595002  0.38380323807160077  0.4309371070715847  1.0000
  O   O7        1.0  0.874607325086949  0.7993327658060192  0.41509663538469116  1.0000
  O   O8        1.0  0.8766747616452998  0.5837861604474354  0.6319201610962293  1.0000
  O   O9        1.0  0.8750033290398791  0.5957063073092623  0.2127273154499358  1.0000
  O   O10       1.0  0.8770707162083168  0.3801579683892918  0.429550913775297  1.0000
