data_image0
_chemical_formula_structural       NC5NC3F3CH3C6NCH9C6NH7Zn2C4O8
_chemical_formula_sum              "N4 C26 F3 H19 Zn2 O8"
_cell_length_a       13.85151926108384
_cell_length_b       9.273386996610926
_cell_length_c       9.274774538082514
_cell_angle_alpha    84.97283399596293
_cell_angle_beta     90.34967317275357
_cell_angle_gamma    89.3985898819531

_space_group_name_H-M_alt    "P 1"
_space_group_IT_number       1

loop_
  _space_group_symop_operation_xyz
  'x, y, z'

loop_
  _atom_site_type_symbol
  _atom_site_label
  _atom_site_symmetry_multiplicity
  _atom_site_fract_x
  _atom_site_fract_y
  _atom_site_fract_z
  _atom_site_occupancy
  N   N1        1.0  0.8913733278405114  0.5927572065271309  0.4054229439887873  1.0000
  C   C1        1.0  0.8193670957081268  0.5831292850590133  0.46797765567804656  1.0000
  C   C2        1.0  0.7297856998505656  0.571150827200267  0.5458046658292574  1.0000
  C   C3        1.0  0.6418811396471472  0.581034125524315  0.47017635056517637  1.0000
  C   C4        1.0  0.5547337103559  0.5711508142244004  0.5458046457689554  1.0000
  C   C5        1.0  0.46434784386581845  0.583129300394982  0.46797774982899054  1.0000
  N   N2        1.0  0.39169514293174723  0.5927571677045316  0.4054230496275806  1.0000
  C   C6        1.0  0.5554893320283271  0.5503843133918034  0.6972391535187793  1.0000
  C   C7        1.0  0.6434306528734605  0.537298977921721  0.7741363134009358  1.0000
  C   C8        1.0  0.6442172392901493  0.5202948301129748  0.937373898890065  1.0000
  F   F1        1.0  0.7258923667341446  0.4450014561840221  0.9891594501970383  1.0000
  F   F2        1.0  0.564023552701071  0.4450014247072074  0.9891595496604608  1.0000
  F   F3        1.0  0.6434763148556593  0.6557106075299377  0.9889300318687162  1.0000
  C   C9        1.0  0.7305596596209719  0.5503842179306465  0.6972391733156602  1.0000
  H   H1        1.0  0.641287898942465  0.5972725490845701  0.352930119578721  1.0000
  H   H2        1.0  0.48764191978413873  0.5447017715557945  0.7549672663889393  1.0000
  H   H3        1.0  0.7989586737021916  0.5447016909833029  0.7549672254332931  1.0000
  C   C10       1.0  0.14451053132444464  0.16909703880018578  0.4061321888259049  1.0000
  C   C11       1.0  0.16092040001182303  0.25370878317961987  0.27563620811229916  1.0000
  C   C12       1.0  0.1682403358092515  0.19034210938858953  0.1451321596622579  1.0000
  C   C13       1.0  0.15925548017679939  0.04007056563137468  0.14178740656302  1.0000
  C   C14       1.0  0.1445450424263226  0.9544998535489783  0.2718300736648491  1.0000
  C   C15       1.0  0.13856727501176525  0.016406135723800803  0.4047262829852743  1.0000
  N   N3        1.0  0.1657481190091759  0.9716909254966041  0.008588972834426382  1.0000
  C   C16       1.0  0.18124636638500569  0.050813627218461825  0.8677488664411435  1.0000
  H   H4        1.0  0.16521723789906617  0.42917879011043647  0.6430816631700766  1.0000
  H   H5        1.0  0.16583712942247297  0.37037009254249353  0.2738655365431979  1.0000
  H   H6        1.0  0.18000836834624598  0.25979775634799185  0.04709710887272255  1.0000
  H   H7        1.0  0.1399787929005023  0.8381186067959813  0.2695532641897558  1.0000
  H   H8        1.0  0.1755715844653489  0.8819836919492525  0.7562499123789794  1.0000
  H   H9        1.0  0.15893521111170927  0.8592977464543047  0.011581794185075983  1.0000
  H   H10       1.0  0.12129376471576125  0.12960551288459254  0.8426726315954443  1.0000
  H   H11       1.0  0.2511239491204427  0.10836334647704662  0.8679817677532208  1.0000
  H   H12       1.0  0.18332556731387326  0.9741209246935304  0.7823065816602701  1.0000
  C   C17       1.0  0.13978045597125233  0.5964415320018677  0.9816067841709265  1.0000
  C   C18       1.0  0.20759057778496987  0.6815783668343063  0.048202031813498566  1.0000
  C   C19       1.0  0.27981519174568215  0.7548310322719467  0.9673155729192504  1.0000
  C   C20       1.0  0.2848164699584777  0.7432790901423834  0.818357326247972  1.0000
  C   C21       1.0  0.2172937893132026  0.6613203927212072  0.7500542425997877  1.0000
  C   C22       1.0  0.14329736183555508  0.5890616219624973  0.8292516563066998  1.0000
  N   N4        1.0  0.3487350220827908  0.8397671551898052  0.03691639884340334  1.0000
  H   H13       1.0  0.9974530418789419  0.31441778691975486  0.10799504727829798  1.0000
  H   H14       1.0  0.2058047936539058  0.6884207289099857  0.16421080750816403  1.0000
  H   H15       1.0  0.3405850225253821  0.7990194827553182  0.7547340703379728  1.0000
  H   H16       1.0  0.22162690165475413  0.6573073354382539  0.6338878522811418  1.0000
  H   H17       1.0  0.04443907430760152  0.4035007281230145  0.5634777669678813  1.0000
  H   H18       1.0  0.3458681086409261  0.8488143154881123  0.14827130956604595  1.0000
  H   H19       1.0  0.40311809115614855  0.8943730298906947  0.9775837099613205  1.0000
  Zn  Zn1       1.0  0.03575545783791468  0.592753271426891  0.4054312996787489  1.0000
  Zn  Zn2       1.0  0.24731312684290097  0.592749232891721  0.4054264810819699  1.0000
  C   C23       1.0  0.14267075666541978  0.5847092101590572  0.6690381637016964  1.0000
  C   C24       1.0  0.14040012603804453  0.6007951132133678  0.1418197556418006  1.0000
  C   C25       1.0  0.1396618616149075  0.8562967670860581  0.3992407403693572  1.0000
  C   C26       1.0  0.1434089613759671  0.3292058222884313  0.4116172587980766  1.0000
  O   O1        1.0  0.22089316996646072  0.6022483882022123  0.19558687424227697  1.0000
  O   O2        1.0  0.22274509431084866  0.5832517852656283  0.6152669742415597  1.0000
  O   O3        1.0  0.22031429745072573  0.8025621591326706  0.39740364357470787  1.0000
  O   O4        1.0  0.22332389411490658  0.38293802559914103  0.4134500966793515  1.0000
  O   O5        1.0  0.059744618371617486  0.8025644787224857  0.3974076840754177  1.0000
  O   O6        1.0  0.06217540275003808  0.5832558388563943  0.6152709349123835  1.0000
  O   O7        1.0  0.060323471623021443  0.6022524066257728  0.19558909978261285  1.0000
  O   O8        1.0  0.06275419628885248  0.3829420327617452  0.4134524304435158  1.0000
