data_image0
_chemical_formula_structural       NC5OC5NC4H8C6ClH5C7NH4Zn2C4O8
_chemical_formula_sum              "N3 C31 O9 H17 Cl1 Zn2"
_cell_length_a       19.189071930511275
_cell_length_b       10.30297070629231
_cell_length_c       9.275157849593905
_cell_angle_alpha    86.11098826397364
_cell_angle_beta     89.71899716240229
_cell_angle_gamma    89.98947815314023

_space_group_name_H-M_alt    "P 1"
_space_group_IT_number       1

loop_
  _space_group_symop_operation_xyz
  'x, y, z'

loop_
  _atom_site_type_symbol
  _atom_site_label
  _atom_site_symmetry_multiplicity
  _atom_site_fract_x
  _atom_site_fract_y
  _atom_site_fract_z
  _atom_site_occupancy
  N   N1        1.0  0.6596692612990559  0.4068909062647173  0.4098797584913272  1.0000
  C   C1        1.0  0.6052559684534566  0.4528183245767588  0.38958242670796994  1.0000
  C   C2        1.0  0.5375728479722637  0.5099443767761309  0.3643355961229653  1.0000
  C   C3        1.0  0.5281215325636136  0.6058615354309758  0.25179501143393557  1.0000
  C   C4        1.0  0.46237438443516604  0.661426417363538  0.22741033368538277  1.0000
  C   C5        1.0  0.4054230657753575  0.6209575953823459  0.3140622953553658  1.0000
  O   O1        1.0  0.3405103735248266  0.6801311151773075  0.28716431984131013  1.0000
  C   C6        1.0  0.2754834006245974  0.6207626734602174  0.31343619554195  1.0000
  C   C7        1.0  0.2186462513132499  0.698618283966687  0.3470160838855225  1.0000
  C   C8        1.0  0.1527922330667426  0.6433469690648075  0.3723447414164738  1.0000
  C   C9        1.0  0.143119216286714  0.5094873422618722  0.3628662096640771  1.0000
  C   C10       1.0  0.07532599943425002  0.45256650999922315  0.38877273198630524  1.0000
  N   N2        1.0  0.020824244947032108  0.4068041427331508  0.4096009102438418  1.0000
  C   C11       1.0  0.1994877821945468  0.4313051024107308  0.32715860239428074  1.0000
  C   C12       1.0  0.26533283400577456  0.4866162654781765  0.3018783673004126  1.0000
  C   C13       1.0  0.41535260776769944  0.5259583584670837  0.4283987997364809  1.0000
  C   C14       1.0  0.4810906939481777  0.4703899639769298  0.45285158832539446  1.0000
  H   H1        1.0  0.5715196583552465  0.6377679409621266  0.18311506056105809  1.0000
  H   H2        1.0  0.45552849428840453  0.7356856546368786  0.14033408405154746  1.0000
  H   H3        1.0  0.22566371696075113  0.8022236975045046  0.35431473567529426  1.0000
  H   H4        1.0  0.10948418889811051  0.7049271584110102  0.39909331588638564  1.0000
  H   H5        1.0  0.1924676149302531  0.32783764141492333  0.3181123466609532  1.0000
  H   H6        1.0  0.3079400499376832  0.42521186345799356  0.27134160037212895  1.0000
  H   H7        1.0  0.3726574511056892  0.49625221562105987  0.499801112265698  1.0000
  H   H8        1.0  0.4879404680224226  0.3971887358583528  0.5411390609295357  1.0000
  C   C15       1.0  0.840250073371097  0.02560014640620856  0.4097465393961417  1.0000
  C   C16       1.0  0.9121484754032123  0.022680559589239875  0.4374488361324522  1.0000
  C   C17       1.0  0.9478225437130346  0.9042750937519658  0.4511938756503793  1.0000
  C   C18       1.0  0.9121484749949565  0.787572590331606  0.43744876835629665  1.0000
  C   C19       1.0  0.8402500806279577  0.788085088932647  0.40974662188727806  1.0000
  C   C20       1.0  0.8046513519263268  0.9076923199389256  0.3960304780679842  1.0000
  Cl  Cl1       1.0  0.03764077829486024  0.9021313502882674  0.48580054514026677  1.0000
  H   H9        1.0  0.8131672063439537  0.3540030149518212  0.39931076256985376  1.0000
  H   H10       1.0  0.9407442174982876  0.11204463239363326  0.44846658906489445  1.0000
  H   H11       1.0  0.9407441901656358  0.6968434386740886  0.44846648554623264  1.0000
  H   H12       1.0  0.7492011224748883  0.9090156663728022  0.3746655897185738  1.0000
  H   H13       1.0  0.8131672023509673  0.460975050636414  0.39931103466060125  1.0000
  C   C21       1.0  0.8411747779277466  0.4031726369923266  0.986548070324846  1.0000
  C   C22       1.0  0.9012399802874549  0.44548172419703186  0.05619772511279187  1.0000
  C   C23       1.0  0.9577303911079963  0.4980004366801234  0.9762759432145166  1.0000
  C   C24       1.0  0.9548141517575292  0.5090450584551379  0.8256192483081152  1.0000
  C   C25       1.0  0.8961816945645544  0.465684326771467  0.7546269453334329  1.0000
  C   C26       1.0  0.8393254102384694  0.4105125283618903  0.832945069160266  1.0000
  C   C27       1.0  0.018478614292082755  0.5421173747085317  0.04923266282278749  1.0000
  N   N3        1.0  0.06730463098765838  0.5775754969132314  0.10787756192755737  1.0000
  H   H14       1.0  0.6716166273557638  0.3594395576828249  0.09451660103569703  1.0000
  H   H15       1.0  0.9982087476464042  0.5501009402093477  0.7627629465272792  1.0000
  H   H16       1.0  0.896027528968304  0.47250996412126245  0.637562624886785  1.0000
  H   H17       1.0  0.7258931569254584  0.3756164701059579  0.5556261519162482  1.0000
  Zn  Zn1       1.0  0.7638907788118714  0.40686247686317856  0.40980760492021817  1.0000
  Zn  Zn2       1.0  0.9166027190667659  0.40682209343525705  0.40968484684012263  1.0000
  C   C28       1.0  0.8396734088550946  0.40395312850267634  0.6729578889436236  1.0000
  C   C29       1.0  0.8408217563241652  0.40973308067905756  0.14653470292358217  1.0000
  C   C30       1.0  0.8402590524176384  0.6439093741113089  0.40400376833673146  1.0000
  C   C31       1.0  0.8402360604837841  0.1697752759448985  0.41548890040521114  1.0000
  O   O2        1.0  0.8986566645107136  0.411913836273492  0.20018109226779246  1.0000
  O   O3        1.0  0.8977433307146679  0.4017407398128443  0.6192179142065364  1.0000
  O   O4        1.0  0.8982154607843127  0.5955084560042068  0.40203555954951065  1.0000
  O   O5        1.0  0.8981844825669302  0.21814612844612347  0.4173633389117242  1.0000
  O   O6        1.0  0.7823089631986337  0.595538441867441  0.40212911288292835  1.0000
  O   O7        1.0  0.7818368332937526  0.4017722848167331  0.6193113906995282  1.0000
  O   O8        1.0  0.7827501709220254  0.411945321010257  0.20027283610142832  1.0000
  O   O9        1.0  0.7822779887393069  0.21817760483402313  0.41745519079276505  1.0000
