data_image0
_chemical_formula_structural       NC9NC3SH6C6NCOCH7C7NC2NH8Zn2C4O8
_chemical_formula_sum              "N5 C33 S1 H21 O9 Zn2"
_cell_length_a       16.77567553997237
_cell_length_b       10.300268703208216
_cell_length_c       9.273999113489248
_cell_angle_alpha    85.0628393421283
_cell_angle_beta     90.06803896743476
_cell_angle_gamma    90.87327597949842

_space_group_name_H-M_alt    "P 1"
_space_group_IT_number       1

loop_
  _space_group_symop_operation_xyz
  'x, y, z'

loop_
  _atom_site_type_symbol
  _atom_site_label
  _atom_site_symmetry_multiplicity
  _atom_site_fract_x
  _atom_site_fract_y
  _atom_site_fract_z
  _atom_site_occupancy
  N   N1        1.0  0.7555381977102466  0.45229670161763946  0.41580231384854627  1.0000
  C   C1        1.0  0.7006303491684215  0.50125870736782  0.4620424615869734  1.0000
  C   C2        1.0  0.632488921826012  0.5620173231135618  0.5194229471536309  1.0000
  C   C3        1.0  0.6342654640127595  0.6492723940771281  0.6250769198951698  1.0000
  C   C4        1.0  0.5585067224024093  0.6924682365937211  0.6601048013355564  1.0000
  C   C5        1.0  0.4967670469472327  0.6390417610932364  0.5816176525772088  1.0000
  C   C6        1.0  0.4102323759977555  0.6650104634853694  0.5936811430413749  1.0000
  C   C7        1.0  0.35364025152272976  0.5859352199815966  0.5288908603552487  1.0000
  C   C8        1.0  0.2719594613137011  0.609902788949438  0.5397797590150939  1.0000
  C   C9        1.0  0.2147053908860858  0.5281712701135408  0.47343834343434366  1.0000
  N   N2        1.0  0.1686901077340184  0.46247083904274683  0.4201096472077186  1.0000
  C   C10       1.0  0.24604148642329268  0.7132605327095285  0.6152799208897466  1.0000
  C   C11       1.0  0.3015435858517483  0.7924986031797483  0.679557213227437  1.0000
  C   C12       1.0  0.3830655933646069  0.7688916941004884  0.6689957751256888  1.0000
  S   S1        1.0  0.5377344825756154  0.5378419100196405  0.4692309645293975  1.0000
  H   H1        1.0  0.6884979684342394  0.6807323756548089  0.6759478305387641  1.0000
  H   H2        1.0  0.5499647676904844  0.7597240470472417  0.741783068391497  1.0000
  H   H3        1.0  0.372641448642452  0.5050988000950376  0.47058854582812965  1.0000
  H   H4        1.0  0.1830245218673884  0.7326478947648631  0.624271646157811  1.0000
  H   H5        1.0  0.28136299544507243  0.8727262936407314  0.7375065996567602  1.0000
  H   H6        1.0  0.4243328036496476  0.8331385884361115  0.7187495473924488  1.0000
  C   C13       1.0  0.9621989306734461  0.0760381576367557  0.4179654108607398  1.0000
  C   C14       1.0  0.9761259838883356  0.08694384376154801  0.2680755243405011  1.0000
  C   C15       1.0  0.9842303234699926  0.9751631807249956  0.1928655583139034  1.0000
  C   C16       1.0  0.9759455202322858  0.8517795984754888  0.2681096501669957  1.0000
  C   C17       1.0  0.9620369508508485  0.8387195251409364  0.41795913071799284  1.0000
  C   C18       1.0  0.9555369133826604  0.9514662543716228  0.49218671292171295  1.0000
  N   N3        1.0  0.997249090134565  0.9847107359129377  0.039029084512715695  1.0000
  C   C19       1.0  0.044301853979406884  0.0855853265595221  0.9619650972008862  1.0000
  O   O1        1.0  0.08909949482954517  0.15916122673853983  0.029082562079463244  1.0000
  C   C20       1.0  0.04485977612752645  0.09775304544663867  0.8002859789105274  1.0000
  H   H7        1.0  0.9790929997375601  0.182326634092969  0.20938932168379742  1.0000
  H   H8        1.0  0.9810860904784027  0.7660072944791522  0.20908195068299484  1.0000
  H   H9        1.0  0.9448170998130839  0.9422461952706106  0.6077988042801552  1.0000
  H   H10       1.0  0.9754787839897093  0.9092054014741852  0.9808090555716591  1.0000
  H   H11       1.0  0.983978010078472  0.07953964281774839  0.7587310057551107  1.0000
  H   H12       1.0  0.06476077676199599  0.19723311478977282  0.7584073535690594  1.0000
  H   H13       1.0  0.08613685976106214  0.025355602798376793  0.7609847741296325  1.0000
  C   C21       1.0  0.9634940797776663  0.46073629672200767  0.9941252184001139  1.0000
  C   C22       1.0  0.026087009458000354  0.4000947713202767  0.0732626899384412  1.0000
  C   C23       1.0  0.0834048191869996  0.3300782092673465  0.005208526719844955  1.0000
  C   C24       1.0  0.07967033958646418  0.3182749394232294  0.8558732680874761  1.0000
  C   C25       1.0  0.018276751285690288  0.38113903780126784  0.7751896432805632  1.0000
  C   C26       1.0  0.9607418147119071  0.454021367134139  0.8417992954232281  1.0000
  C   C27       1.0  0.1408681389032087  0.24211528447416317  0.7858162087168403  1.0000
  N   N4        1.0  0.2076363092395237  0.19838553872117706  0.8545513997471312  1.0000
  C   C28       1.0  0.24624235179784562  0.13435891941776884  0.7556312838088854  1.0000
  C   C29       1.0  0.2026949021016697  0.13975848149128603  0.6296351576510899  1.0000
  N   N5        1.0  0.13642208864632166  0.20746846812340536  0.6487768675196017  1.0000
  H   H14       1.0  0.8785984824227676  0.6225578964654914  0.25981632504788466  1.0000
  H   H15       1.0  0.02969745470345653  0.4040481414894618  0.18945145988918566  1.0000
  H   H16       1.0  0.13016639527882434  0.28339007894801727  0.07042405862220225  1.0000
  H   H17       1.0  0.01630551922895762  0.3775767488430635  0.6590641169174067  1.0000
  H   H18       1.0  0.8363414461720631  0.5242513772594934  0.5547397598437871  1.0000
  H   H19       1.0  0.30264732546220485  0.08632238390875457  0.7745880816245871  1.0000
  H   H20       1.0  0.21800622289079175  0.09677327856382295  0.5311023716062642  1.0000
  H   H21       1.0  0.0913176516986116  0.22604137073813968  0.5726011040885459  1.0000
  Zn  Zn1       1.0  0.8747648908904978  0.4552292046745916  0.417053660837323  1.0000
  Zn  Zn2       1.0  0.04946337335440032  0.45952764838726834  0.41887015305729114  1.0000
  C   C30       1.0  0.961261371183685  0.45011722270952786  0.6815708026533576  1.0000
  C   C31       1.0  0.9629687999552956  0.46464131468870484  0.15435317272458504  1.0000
  C   C32       1.0  0.9620821501462983  0.6946019534348138  0.41220882361770617  1.0000
  C   C33       1.0  0.9621479614617926  0.22015502167965084  0.42371522810205464  1.0000
  O   O2        1.0  0.029089676097803437  0.467577445982551  0.20881648727360047  1.0000
  O   O3        1.0  0.027732602540587518  0.4504425343628522  0.6284857482001216  1.0000
  O   O4        1.0  0.028394493342871033  0.647867012476709  0.4109740350441582  1.0000
  O   O5        1.0  0.028427726032155935  0.2701529765488427  0.42632809159161167  1.0000
  O   O6        1.0  0.8958004785967478  0.6446038750476433  0.4095957216755308  1.0000
  O   O7        1.0  0.8951385877093606  0.4471809577521806  0.6271073578622053  1.0000
  O   O8        1.0  0.8964956669633691  0.46431583786611785  0.20743636166283208  1.0000
  O   O9        1.0  0.8958337165450918  0.2668913582868879  0.42494807419132496  1.0000
