data_image0
_chemical_formula_structural       NC5NC3BrH3C6BrH5C6NH7Zn2C4O8
_chemical_formula_sum              "N3 C24 Br2 H15 Zn2 O8"
_cell_length_a       13.839083392302014
_cell_length_b       9.276564384272257
_cell_length_c       9.274774538082514
_cell_angle_alpha    85.01137938942293
_cell_angle_beta     90.35089926540529
_cell_angle_gamma    90.61189963838827

_space_group_name_H-M_alt    "P 1"
_space_group_IT_number       1

loop_
  _space_group_symop_operation_xyz
  'x, y, z'

loop_
  _atom_site_type_symbol
  _atom_site_label
  _atom_site_symmetry_multiplicity
  _atom_site_fract_x
  _atom_site_fract_y
  _atom_site_fract_z
  _atom_site_occupancy
  N   N1        1.0  0.9143000465647868  0.5927158789602931  0.40667703395644716  1.0000
  C   C1        1.0  0.8418712415150575  0.5290466918768248  0.4091983293546043  1.0000
  C   C2        1.0  0.7516315279906911  0.44982021094808894  0.41233553466153583  1.0000
  C   C3        1.0  0.6645853541882278  0.5260532857823725  0.40931705644241045  1.0000
  C   C4        1.0  0.5760382211765749  0.451293573524105  0.41227713625809126  1.0000
  C   C5        1.0  0.48680537286239967  0.5298790664324127  0.40916535213590377  1.0000
  N   N2        1.0  0.4150737682848448  0.593055643629147  0.40666352435657016  1.0000
  C   C6        1.0  0.5744693430521248  0.2999891479340675  0.41826808177822183  1.0000
  C   C7        1.0  0.6610696584821211  0.22363475357341867  0.4212912722783109  1.0000
  C   C8        1.0  0.7498080368461977  0.29768003124576453  0.4183595009133747  1.0000
  Br  Br1       1.0  0.8664736349222265  0.18754186756464628  0.4227205444098421  1.0000
  H   H1        1.0  0.6657460106871841  0.6433014119091007  0.4046743810329162  1.0000
  H   H2        1.0  0.506380699721528  0.24111099342553755  0.4205991125871962  1.0000
  H   H3        1.0  0.6591474724292492  0.10663594535442565  0.4259236981675348  1.0000
  C   C9        1.0  0.1617817394252523  0.1693995999240001  0.4070394357868754  1.0000
  C   C10       1.0  0.14886689933037633  0.25403810645060143  0.2751304216270467  1.0000
  C   C11       1.0  0.14494979805782915  0.19018383698103514  0.14445326446726936  1.0000
  C   C12       1.0  0.15391606348357567  0.04079363086156951  0.14320383066256137  1.0000
  C   C13       1.0  0.16512057417107306  0.954477994330823  0.27311819859203257  1.0000
  C   C14       1.0  0.16760129760548392  0.01636066611523956  0.4063135913442173  1.0000
  Br  Br2       1.0  0.14926561793588536  0.9539932169693939  0.9638919195367431  1.0000
  H   H4        1.0  0.1343925038418723  0.4298914056095058  0.6416790316192635  1.0000
  H   H5        1.0  0.14408838691201797  0.37071276012429166  0.2726597399160209  1.0000
  H   H6        1.0  0.1358612340296832  0.25727280503487404  0.043922417021095  1.0000
  H   H7        1.0  0.1695789018954066  0.8382681164616332  0.27000644716882954  1.0000
  H   H8        1.0  0.22181236992118647  0.7165085460554261  0.6310947849259716  1.0000
  C   C15       1.0  0.1629827200236469  0.5965673904478637  0.9828571090935911  1.0000
  C   C16       1.0  0.23203654515966357  0.6817157086557275  0.049518845337227724  1.0000
  C   C17       1.0  0.30534379226104225  0.7549876798079361  0.9686892183770338  1.0000
  C   C18       1.0  0.3101891445663225  0.7434438236011094  0.8197215657776731  1.0000
  C   C19       1.0  0.24146716094032716  0.6614725477516812  0.7513545362504015  1.0000
  C   C20       1.0  0.16640030399322048  0.5891928646267872  0.8304959635820786  1.0000
  N   N3        1.0  0.3755055406069785  0.8399361211365752  0.03835634179997949  1.0000
  H   H9        1.0  0.016609759721487812  0.3145614916987105  0.10902289548359922  1.0000
  H   H10       1.0  0.23034418063342676  0.6885540802679788  0.16553316044612032  1.0000
  H   H11       1.0  0.3667822407743948  0.7991994569063993  0.7561415332488814  1.0000
  H   H12       1.0  0.2457484503783236  0.6574640620806769  0.6351848081450526  1.0000
  H   H13       1.0  0.06487549299559014  0.4036401735885635  0.5645758340691858  1.0000
  H   H14       1.0  0.372761692374449  0.8489776617362168  0.149718590573241  1.0000
  H   H15       1.0  0.43069614471878226  0.8945567562969174  0.9790660033229832  1.0000
  Zn  Zn1       1.0  0.058812535360025286  0.5928099886616642  0.4066814795828968  1.0000
  Zn  Zn2       1.0  0.27056123816817146  0.5929496107611856  0.4066709331043594  1.0000
  C   C21       1.0  0.1657126827967501  0.5848417942903745  0.6702789950609778  1.0000
  C   C22       1.0  0.16366341609437463  0.6009196250082804  0.14307355760669016  1.0000
  C   C23       1.0  0.16647311186995006  0.8563170505614033  0.400699605983307  1.0000
  C   C24       1.0  0.16290290317139267  0.32944263540272667  0.4126530251183548  1.0000
  O   O1        1.0  0.2442493498628324  0.6024269690960835  0.19683966438077904  1.0000
  O   O2        1.0  0.24583910577791368  0.5834393358400309  0.6165044692268211  1.0000
  O   O3        1.0  0.24645208466417046  0.8026590247817365  0.39881720399668263  1.0000
  O   O4        1.0  0.24363629835566525  0.3832072913644005  0.41452682139214714  1.0000
  O   O5        1.0  0.08573740291307175  0.8025523080124397  0.39882559129111517  1.0000
  O   O6        1.0  0.08512443561713745  0.5833343523592494  0.6165127780832658  1.0000
  O   O7        1.0  0.08353467242486845  0.6023219504577673  0.1968462380786971  1.0000
  O   O8        1.0  0.08292162127915192  0.38310226147005144  0.4145335033048423  1.0000
