data_image0
_chemical_formula_structural       NC5NC3BrH3C6NCH9C6ClH5Zn2C4O8
_chemical_formula_sum              "N3 C25 Br1 H17 Cl1 Zn2 O8"
_cell_length_a       13.839083392302014
_cell_length_b       9.273386996610926
_cell_length_c       10.302974078461048
_cell_angle_alpha    85.46621229036245
_cell_angle_beta     90.00087565585007
_cell_angle_gamma    89.42455387291925

_space_group_name_H-M_alt    "P 1"
_space_group_IT_number       1

loop_
  _space_group_symop_operation_xyz
  'x, y, z'

loop_
  _atom_site_type_symbol
  _atom_site_label
  _atom_site_symmetry_multiplicity
  _atom_site_fract_x
  _atom_site_fract_y
  _atom_site_fract_z
  _atom_site_occupancy
  N   N1        1.0  0.8987920677929304  0.5794841910597273  0.5656021736705406  1.0000
  C   C1        1.0  0.8272372317624739  0.5158115343321157  0.5679161443943552  1.0000
  C   C2        1.0  0.7380850385088314  0.43658073459267377  0.5707953819871374  1.0000
  C   C3        1.0  0.6499924332965391  0.5128179667522359  0.5680251051857428  1.0000
  C   C4        1.0  0.5624715074826697  0.4380541769950852  0.5707417866238054  1.0000
  C   C5        1.0  0.4721599374017652  0.5166439541151726  0.5678858791514355  1.0000
  N   N2        1.0  0.39956112588712756  0.579823973765823  0.5655897759592958  1.0000
  C   C6        1.0  0.5629795455462027  0.2867415000039628  0.5762401128825245  1.0000
  C   C7        1.0  0.6506279580869407  0.21038294090633913  0.5790147161538624  1.0000
  C   C8        1.0  0.7383499360256625  0.28443225729155386  0.5763240150708442  1.0000
  Br  Br1       1.0  0.8565273714345827  0.17428808798859086  0.5803264601245093  1.0000
  H   H1        1.0  0.6495436563318036  0.6300724852793606  0.5637641880702353  1.0000
  H   H2        1.0  0.4956991083211915  0.22786013223785304  0.5783794742137012  1.0000
  H   H3        1.0  0.6503117847447  0.09337775059622343  0.5832662334283623  1.0000
  C   C9        1.0  0.1521526132790678  0.15600209893914418  0.5662338775263382  1.0000
  C   C10       1.0  0.1691190711781747  0.23948922055183283  0.4488479464190769  1.0000
  C   C11       1.0  0.17698750391296536  0.17499168090225092  0.3314549838265215  1.0000
  C   C12       1.0  0.16800850642792575  0.02468492470292926  0.32844648902530293  1.0000
  C   C13       1.0  0.1527448811482368  0.9402360440555245  0.4454246070933534  1.0000
  C   C14       1.0  0.14620988250691472  0.003294923616969479  0.5649693655166619  1.0000
  N   N3        1.0  0.17506009181560223  0.9551504064271121  0.20862985679718737  1.0000
  C   C15       1.0  0.1911570702602976  0.03305783662745587  0.0819390593733984  1.0000
  H   H4        1.0  0.1718938333483333  0.4181601921876693  0.7793773848557849  1.0000
  H   H5        1.0  0.17404754900176456  0.35613845784325826  0.44725504570074937  1.0000
  H   H6        1.0  0.18917317337245154  0.2436020752750898  0.24326886620866417  1.0000
  H   H7        1.0  0.14818400477603588  0.8238318802922489  0.44337665378045155  1.0000
  H   H8        1.0  0.18178747417869934  0.8719570808651583  0.8811757740996282  1.0000
  H   H9        1.0  0.16822866514335846  0.8427786487136357  0.2113221694332339  1.0000
  H   H10       1.0  0.13125501092726366  0.11159075913025007  0.05938363144148173  1.0000
  H   H11       1.0  0.26109615158602306  0.09065703603988173  0.08214682678462992  1.0000
  H   H12       1.0  0.1935929520870352  0.9556229025692606  0.005080798899773858  1.0000
  C   C16       1.0  0.14918126631243855  0.5796485401787772  0.18435911541246952  1.0000
  C   C17       1.0  0.13342412687818817  0.42979666320719945  0.19381682822169097  1.0000
  C   C18       1.0  0.12560591366127483  0.3554442434065121  0.08155269617374339  1.0000
  C   C19       1.0  0.1334241695230789  0.4297967447124287  0.9587089291279195  1.0000
  C   C20       1.0  0.1491812643700332  0.5796484657077298  0.9468441345970917  1.0000
  C   C21       1.0  0.15698304223167714  0.6538439704681929  0.060322983821124554  1.0000
  Cl  Cl1       1.0  0.10592150629461439  0.1682436494470847  0.09487116905493174  1.0000
  H   H13       1.0  0.15511726593226058  0.6360951561711867  0.5080994973119071  1.0000
  H   H14       1.0  0.12715715770692748  0.3701970723981096  0.28810361117800465  1.0000
  H   H15       1.0  0.12715722537359153  0.37019705185812896  0.872902645133153  1.0000
  H   H16       1.0  0.16913537776142198  0.7694142357138816  0.05210058680378671  1.0000
  H   H17       1.0  0.1551170821539294  0.6360951432797628  0.6150718668541266  1.0000
  Zn  Zn1       1.0  0.04330323083281762  0.5795783770174374  0.5656061046967591  1.0000
  Zn  Zn2       1.0  0.2550500379240168  0.5797179630564457  0.5655965169520953  1.0000
  C   C22       1.0  0.1492194057034122  0.5739012125265484  0.8027266899387886  1.0000
  C   C23       1.0  0.14913616255484263  0.5853969493678595  0.328476056312873  1.0000
  C   C24       1.0  0.1473282277973498  0.8431385551011149  0.5600349082581366  1.0000
  C   C25       1.0  0.15102728036344584  0.31615787344955204  0.5711679097993232  1.0000
  O   O1        1.0  0.2294778792291221  0.5873728462661632  0.3768393890977453  1.0000
  O   O2        1.0  0.2295886237571594  0.5720301698559891  0.7543557081797514  1.0000
  O   O3        1.0  0.2280603904325429  0.7894427282417134  0.5583803751982797  1.0000
  O   O4        1.0  0.23100604022651486  0.3699602981530583  0.5728146247246975  1.0000
  O   O5        1.0  0.06734715627151532  0.7893360418747616  0.5583879969205977  1.0000
  O   O6        1.0  0.06887537743478658  0.5719252167867155  0.7543632580927118  1.0000
  O   O7        1.0  0.06876463332365668  0.587267842923439  0.3768453782026424  1.0000
  O   O8        1.0  0.07029279438946888  0.3698552844916514  0.5728207111805552  1.0000
