data_image0
_chemical_formula_structural       NC9NC3OH6C7F3H5C6NH7Zn2C4O8
_chemical_formula_sum              "N3 C29 O9 H18 F3 Zn2"
_cell_length_a       15.78231758774541
_cell_length_b       9.27228830945605
_cell_length_c       9.274774538082513
_cell_angle_alpha    84.76856818496036
_cell_angle_beta     90.43038941912484
_cell_angle_gamma    89.05832516092083

_space_group_name_H-M_alt    "P 1"
_space_group_IT_number       1

loop_
  _space_group_symop_operation_xyz
  'x, y, z'

loop_
  _atom_site_type_symbol
  _atom_site_label
  _atom_site_symmetry_multiplicity
  _atom_site_fract_x
  _atom_site_fract_y
  _atom_site_fract_z
  _atom_site_occupancy
  N   N1        1.0  0.7828035585328955  0.5846860591715576  0.40240258733879974  1.0000
  C   C1        1.0  0.7349081799390307  0.49324250655964574  0.42964300337468253  1.0000
  C   C2        1.0  0.6754441023355588  0.3797388269964712  0.4634553704394824  1.0000
  C   C3        1.0  0.6960990507800833  0.23716068689777295  0.5058408990586514  1.0000
  C   C4        1.0  0.6198497095708353  0.16806101384690253  0.5264654389976093  1.0000
  C   C5        1.0  0.5573347630935745  0.27358475399431237  0.49514117428264875  1.0000
  C   C6        1.0  0.46437991280926544  0.2540741348028995  0.5010345378900711  1.0000
  C   C7        1.0  0.4098017291957739  0.373700125696278  0.4653411469244761  1.0000
  C   C8        1.0  0.3217068966957545  0.3577018160777061  0.4701815219452832  1.0000
  C   C9        1.0  0.266407943371547  0.48080846742795597  0.43344044845757745  1.0000
  N   N2        1.0  0.22196058506715982  0.5797703447168623  0.40390393468771224  1.0000
  C   C10       1.0  0.28751020873371197  0.22189944930027905  0.5107706707101494  1.0000
  C   C11       1.0  0.34115575513186996  0.10252073940801901  0.5463951089186758  1.0000
  C   C12       1.0  0.429067987529193  0.11807956216832373  0.5416862932239677  1.0000
  O   O1        1.0  0.5929225577225489  0.3986450505570766  0.45790953623487235  1.0000
  H   H1        1.0  0.7588939114633454  0.18907871764723302  0.5200783072897068  1.0000
  H   H2        1.0  0.6119084121185454  0.05444406972061036  0.5602582749711275  1.0000
  H   H3        1.0  0.43567103455379685  0.479378492703016  0.433750344722148  1.0000
  H   H4        1.0  0.2194884737956543  0.20834973307080062  0.5148678578531027  1.0000
  H   H5        1.0  0.3145511029944799  0.9975648404432709  0.5777704107716232  1.0000
  H   H6        1.0  0.46881296326467387  0.023523136654916454  0.5699125257314617  1.0000
  C   C13       1.0  0.00488772689659655  0.15835616849846734  0.40538622773324057  1.0000
  C   C14       1.0  0.04473454122938403  0.24091275703950843  0.2915231219259508  1.0000
  C   C15       1.0  0.07619464777608703  0.1759811247940961  0.17259918588325895  1.0000
  C   C16       1.0  0.0674824773024229  0.026954307484107876  0.16334366356229332  1.0000
  C   C17       1.0  0.03073342156895364  0.942664590340387  0.27905452919512364  1.0000
  C   C18       1.0  0.999884634178991  0.006088967449215735  0.40093286691809543  1.0000
  C   C19       1.0  0.1036481029405884  0.9561124698004958  0.03668953758258619  1.0000
  F   F1        1.0  0.10246426674780189  0.0518026060671033  0.9130446007016139  1.0000
  F   F2        1.0  0.05688576038433756  0.8365224451781772  0.009016789722070765  1.0000
  F   F3        1.0  0.18639402930266047  0.9123567008706195  0.06822799312372596  1.0000
  H   H7        1.0  0.8633679682447203  0.24025568870578984  0.6645142796365376  1.0000
  H   H8        1.0  0.05008502664394743  0.35710412740627495  0.29303488200336747  1.0000
  H   H9        1.0  0.10675861610868509  0.24286227759225776  0.08705667678512663  1.0000
  H   H10       1.0  0.02801396110080744  0.8262844848996984  0.27579979637883323  1.0000
  H   H11       1.0  0.9616926477097101  0.8737846049887847  0.7503454085340987  1.0000
  C   C20       1.0  0.000843615625131905  0.5859313621716482  0.9793186276050511  1.0000
  C   C21       1.0  0.060385345658237055  0.6704386619273133  0.04581293403266162  1.0000
  C   C22       1.0  0.12379889682823632  0.7430132964724371  0.964881272846817  1.0000
  C   C23       1.0  0.12818585262993154  0.7314072365511002  0.8159793379132698  1.0000
  C   C24       1.0  0.06889722483697236  0.6500766201728724  0.7477666943106343  1.0000
  C   C25       1.0  0.003928716481818025  0.5785137169169492  0.8270004400372996  1.0000
  N   N3        1.0  0.1843146219107218  0.8273088948528087  0.03438520502240183  1.0000
  H   H12       1.0  0.8758447773256949  0.30518441026988685  0.10628821831112512  1.0000
  H   H13       1.0  0.05881959982870416  0.6773015191366567  0.1617918859004277  1.0000
  H   H14       1.0  0.1771506972323702  0.7866237302840373  0.7523241178867599  1.0000
  H   H15       1.0  0.07269959876167631  0.6460192598535053  0.6316276549732315  1.0000
  H   H16       1.0  0.9171091766108437  0.3938441151332017  0.561593402151841  1.0000
  H   H17       1.0  0.18180047151986878  0.8363881229107186  0.1456991644457217  1.0000
  H   H18       1.0  0.23206307370539914  0.8814039940207654  0.9750204512780241  1.0000
  Zn  Zn1       1.0  0.9095348394958799  0.5832635617021016  0.4028441920003245  1.0000
  Zn  Zn2       1.0  0.09522938807947673  0.5811809581765441  0.4034741905429381  1.0000
  C   C26       1.0  0.00337761738634978  0.5741655852212  0.6668006296081121  1.0000
  C   C27       1.0  0.0013886277347505672  0.5902807319172771  0.1395178919092417  1.0000
  C   C28       1.0  0.0008050135230095446  0.8458997854741389  0.39602309602832897  1.0000
  C   C29       1.0  0.003961178748382417  0.31854479750555864  0.4102955113338267  1.0000
  O   O2        1.0  0.07204168937412525  0.5909437857712843  0.19352134269264454  1.0000
  O   O3        1.0  0.07366242635691522  0.5719207982039218  0.6132749233815191  1.0000
  O   O4        1.0  0.0715840716934108  0.7913495989778714  0.3946201381124915  1.0000
  O   O5        1.0  0.07411998021786026  0.37151499698055646  0.4121760194734396  1.0000
  O   O6        1.0  0.9306441839890236  0.7929295236104172  0.39414236284723536  1.0000
  O   O7        1.0  0.9327225281337636  0.5735024577075749  0.6127970620488732  1.0000
  O   O8        1.0  0.9311017851886636  0.5925254101592112  0.19304174633490165  1.0000
  O   O9        1.0  0.933180076483695  0.3730966100975901  0.4116965313813419  1.0000
