data_image0
_chemical_formula_structural       NC9NC3SH6C6SCNH4C6OCH7Zn2C4O8
_chemical_formula_sum              "N3 C30 S2 H17 O9 Zn2"
_cell_length_a       16.77567553997237
_cell_length_b       10.302215558581764
_cell_length_c       9.273891588657152
_cell_angle_alpha    86.08259887656699
_cell_angle_beta     90.06962488754225
_cell_angle_gamma    90.91242892959859

_space_group_name_H-M_alt    "P 1"
_space_group_IT_number       1

loop_
  _space_group_symop_operation_xyz
  'x, y, z'

loop_
  _atom_site_type_symbol
  _atom_site_label
  _atom_site_symmetry_multiplicity
  _atom_site_fract_x
  _atom_site_fract_y
  _atom_site_fract_z
  _atom_site_occupancy
  N   N1        1.0  0.7558776408758867  0.42674723964346317  0.41813944877236264  1.0000
  C   C1        1.0  0.7009982193939557  0.47643796673450256  0.4643233251190895  1.0000
  C   C2        1.0  0.6328920680730753  0.5381008698151358  0.5216339822609366  1.0000
  C   C3        1.0  0.6347232324841978  0.6270255821536734  0.6271561614628105  1.0000
  C   C4        1.0  0.5589885873183651  0.6707723083389251  0.6621422146144514  1.0000
  C   C5        1.0  0.4972131154647414  0.616103383317903  0.5837544610771743  1.0000
  C   C6        1.0  0.4106913979599748  0.6422597409736057  0.5958049964948422  1.0000
  C   C7        1.0  0.3540550482525232  0.5621653869544847  0.53109219028933  1.0000
  C   C8        1.0  0.2723861715499918  0.5863022413740815  0.541969464265686  1.0000
  C   C9        1.0  0.2150864968551084  0.5035273559073061  0.4757072802225413  1.0000
  N   N2        1.0  0.1690345544566941  0.43698821229017504  0.42244227439792215  1.0000
  C   C10       1.0  0.24652443704526297  0.6908454658207002  0.6173808088018089  1.0000
  C   C11       1.0  0.3020707426052655  0.771094430754232  0.6815813412589706  1.0000
  C   C12       1.0  0.3835810437675613  0.7473233942409251  0.6710311311622911  1.0000
  S   S1        1.0  0.5381189296470731  0.5131290569703293  0.4715068685965767  1.0000
  H   H1        1.0  0.6889776086737208  0.6592914393637326  0.6779622355010172  1.0000
  H   H2        1.0  0.5504887761847305  0.7393189110300697  0.743718569611034  1.0000
  H   H3        1.0  0.3730123868317247  0.48041371226469165  0.4728583281395118  1.0000
  H   H4        1.0  0.1835171406301641  0.7103726940728521  0.6263628818821587  1.0000
  H   H5        1.0  0.2819336951433037  0.8522318578533409  0.7394626740690718  1.0000
  H   H6        1.0  0.4248836940630079  0.8123522275355094  0.7207258684107101  1.0000
  C   C13       1.0  0.9623808500857917  0.05059333720102632  0.4202504120642516  1.0000
  C   C14       1.0  0.04213920529545234  0.04886908134937484  0.4664360278275783  1.0000
  C   C15       1.0  0.08182898634024481  0.9309739963758467  0.48987576968099394  1.0000
  C   C16       1.0  0.042346043551829256  0.8136999962887982  0.4665602290965177  1.0000
  C   C17       1.0  0.9625389068710813  0.8131324070489994  0.42034385098910243  1.0000
  C   C18       1.0  0.9229854514662145  0.9321103058350382  0.39749845165707787  1.0000
  S   S2        1.0  0.18373049612747933  0.9302893577788928  0.5482408854511798  1.0000
  C   C19       1.0  0.15685934858540307  0.9182987739363055  0.7326654732332165  1.0000
  N   N3        1.0  0.13921867680585898  0.9104377101587959  0.8535713123424217  1.0000
  H   H7        1.0  0.07373624916350696  0.1387716500734324  0.48465044559166454  1.0000
  H   H8        1.0  0.07408486618728594  0.7233250101445191  0.4848598544081138  1.0000
  H   H9        1.0  0.8614724911929512  0.9325906216716451  0.3618984766661204  1.0000
  H   H10       1.0  0.8121371238981818  0.6048547271982032  0.33308328995546077  1.0000
  C   C20       1.0  0.9637651978210204  0.42845662772250953  0.9970349986656243  1.0000
  C   C21       1.0  0.029063708481424925  0.4849148802474542  0.06629536203083419  1.0000
  C   C22       1.0  0.0898421742439024  0.5509562133839865  0.987126372466665  1.0000
  C   C23       1.0  0.085539485912705  0.5608700185479532  0.835642155550954  1.0000
  C   C24       1.0  0.021915696913457294  0.5036671222842646  0.7650569412044659  1.0000
  C   C25       1.0  0.9611545672934194  0.4352690987333379  0.8435592788351088  1.0000
  O   O1        1.0  0.1529631755255152  0.6057619153687641  0.06299677313436569  1.0000
  C   C26       1.0  0.2186265424434235  0.6757196071432814  0.9966124895960676  1.0000
  H   H11       1.0  0.7741231313414032  0.34401153897715875  0.1060675849896544  1.0000
  H   H12       1.0  0.13147391096950914  0.6115875471900513  0.7712043797741366  1.0000
  H   H13       1.0  0.0212738208281753  0.51034277176137  0.6479698860004701  1.0000
  H   H14       1.0  0.8346873031257626  0.37329882427364713  0.5667924372317721  1.0000
  H   H15       1.0  0.19724491859181748  0.7630506553154401  0.9320048107989827  1.0000
  H   H16       1.0  0.2518540076062452  0.6121058734849459  0.9265381132309513  1.0000
  H   H17       1.0  0.25944203266908944  0.7077654414349305  0.08188484961528798  1.0000
  Zn  Zn1       1.0  0.8751057779139466  0.42969916369804706  0.4193894831556033  1.0000
  Zn  Zn2       1.0  0.049806373754430755  0.4340257917628195  0.4212040753901014  1.0000
  C   C27       1.0  0.9616451948509342  0.4288089922831413  0.6835474295913171  1.0000
  C   C28       1.0  0.9632688644458596  0.43491764977694314  0.15704629043909568  1.0000
  C   C29       1.0  0.9625226613806629  0.6689499909672597  0.4145825144716384  1.0000
  C   C30       1.0  0.9623913377426583  0.1947750903184027  0.42601128159282453  1.0000
  O   O2        1.0  0.02940025491847043  0.43872229626338877  0.21143616928126985  1.0000
  O   O3        1.0  0.028107515401126992  0.42828717356737395  0.6305343692353633  1.0000
  O   O4        1.0  0.02881518237074255  0.6222040569293407  0.4133432881871457  1.0000
  O   O5        1.0  0.028692528670584142  0.24480541984324236  0.42862714164018856  1.0000
  O   O6        1.0  0.8962195633810774  0.6189195341425112  0.41196641627870356  1.0000
  O   O7        1.0  0.895511896968219  0.4250042100798533  0.6291574206660576  1.0000
  O   O8        1.0  0.8968046418733902  0.435439273586507  0.2100574877869832  1.0000
  O   O9        1.0  0.8960969152870591  0.24152238874942647  0.42724856820838886  1.0000
