data_image0
_chemical_formula_structural       NC7NC8NOH9C12H10C6H6Zn2C4O8
_chemical_formula_sum              "N3 C37 O9 H25 Zn2"
_cell_length_a       21.38721084674475
_cell_length_b       13.024581838241813
_cell_length_c       10.681121600428288
_cell_angle_alpha    84.14087780974744
_cell_angle_beta     89.69280777650657
_cell_angle_gamma    93.21244007102088

_space_group_name_H-M_alt    "P 1"
_space_group_IT_number       1

loop_
  _space_group_symop_operation_xyz
  'x, y, z'

loop_
  _atom_site_type_symbol
  _atom_site_label
  _atom_site_symmetry_multiplicity
  _atom_site_fract_x
  _atom_site_fract_y
  _atom_site_fract_z
  _atom_site_occupancy
  N   N1        1.0  0.633209589347712  0.11987797352850854  0.5785647215363192  1.0000
  C   C1        1.0  0.5792129003021887  0.12088278749953861  0.5732874220379699  1.0000
  C   C2        1.0  0.5120484643633897  0.12213193294397634  0.5667226580220643  1.0000
  C   C3        1.0  0.4837703358270684  0.21344041066946393  0.5239307614206439  1.0000
  C   C4        1.0  0.4185101674523718  0.21467911518529298  0.5177978157810762  1.0000
  C   C5        1.0  0.38104945522424266  0.12442032171498978  0.5520731841432504  1.0000
  C   C6        1.0  0.40952216243830564  0.0336178152765807  0.5981574367368241  1.0000
  C   C7        1.0  0.47477128567886523  0.03232349451025996  0.6043453162021524  1.0000
  N   N2        1.0  0.31421023814138194  0.12907362620165141  0.549974698649478  1.0000
  C   C8        1.0  0.27415295982684257  0.062362688182303165  0.5070436400973021  1.0000
  C   C9        1.0  0.2060379247661041  0.07435564859980714  0.5221396825854481  1.0000
  C   C10       1.0  0.1623396726064757  0.003708755007343134  0.47472799153444  1.0000
  C   C11       1.0  0.0980495393577434  0.014376829956715752  0.48860726746253935  1.0000
  C   C12       1.0  0.0765000183319475  0.09567868554451754  0.5500261963333515  1.0000
  C   C13       1.0  0.11949217094880099  0.16637317478931446  0.5976131119662286  1.0000
  C   C14       1.0  0.18380816075233705  0.15591499927918265  0.5838859712347138  1.0000
  C   C15       1.0  0.010299207705563206  0.1065438880172016  0.5642372374088336  1.0000
  N   N3        1.0  0.957079361280309  0.11527871787202185  0.5756618122294048  1.0000
  O   O1        1.0  0.2938786272793754  0.9808518153249944  0.44364462456001763  1.0000
  H   H1        1.0  0.5121111109156177  0.2836566498271833  0.49580481312225433  1.0000
  H   H2        1.0  0.39703701106187156  0.28581716669576573  0.48549247992503997  1.0000
  H   H3        1.0  0.3812254840767783  0.9643522991353675  0.6304482766178917  1.0000
  H   H4        1.0  0.496095310044832  0.961623002488957  0.6392685588615312  1.0000
  H   H5        1.0  0.17770636955018243  0.9400611567036109  0.42684534945999736  1.0000
  H   H6        1.0  0.0651622929129556  0.9591751988294368  0.45142287002448933  1.0000
  H   H7        1.0  0.10331740430442848  0.22960990158230724  0.6453670175547181  1.0000
  H   H8        1.0  0.21600503839263815  0.21172495188470197  0.6216749243212778  1.0000
  H   H9        1.0  0.3387566746141711  0.9750767271342109  0.4160788859012788  1.0000
  C   C16       1.0  0.7831375729497561  0.8148429547837205  0.5864672137650067  1.0000
  C   C17       1.0  0.7553761341990289  0.752734335213653  0.49936917402250436  1.0000
  C   C18       1.0  0.7760392545221144  0.654148639504413  0.48801273337896756  1.0000
  C   C19       1.0  0.8244637537319319  0.6156309639148495  0.5641065953551774  1.0000
  C   C20       1.0  0.8526880970276574  0.6777715444275825  0.6501570797073659  1.0000
  C   C21       1.0  0.8320703788554077  0.7763879167231701  0.6615944893496217  1.0000
  C   C22       1.0  0.8470683638975823  0.5118758676026673  0.5506945475542155  1.0000
  C   C23       1.0  0.9098848667555911  0.5053165415649177  0.5143375394399003  1.0000
  C   C24       1.0  0.932900717122598  0.41056498964220767  0.49247409081982396  1.0000
  C   C25       1.0  0.8935539686480523  0.3211230616936781  0.5063127315481235  1.0000
  C   C26       1.0  0.8312145113585255  0.3257994742293705  0.5435902865028295  1.0000
  C   C27       1.0  0.8071570762622364  0.4203057322716764  0.5677703791803601  1.0000
  H   H10       1.0  0.7747444146392216  0.051809760891377  0.6945564179805866  1.0000
  H   H11       1.0  0.7177740627396294  0.7803532707784593  0.4397712176504079  1.0000
  H   H12       1.0  0.7543522750349999  0.6078056031620807  0.4197378589196856  1.0000
  H   H13       1.0  0.890446178383303  0.6495596525610701  0.7089748468462176  1.0000
  H   H14       1.0  0.8545091599044039  0.8224500986408471  0.7292433217339924  1.0000
  H   H15       1.0  0.9409149655200498  0.5742840918696436  0.5006759618327377  1.0000
  H   H16       1.0  0.9812529859806174  0.40663408718658733  0.46379749543975624  1.0000
  H   H17       1.0  0.911493225073447  0.24774916255529186  0.48890805042540264  1.0000
  H   H18       1.0  0.8020351277694865  0.254729803204567  0.5557718061499494  1.0000
  H   H19       1.0  0.6539259889446349  0.3374256613613041  0.6210921917857063  1.0000
  C   C28       1.0  0.7951473318755246  0.11757432720642094  0.2093735547427589  1.0000
  C   C29       1.0  0.7481427354851682  0.06087407675543188  0.1501225205202652  1.0000
  C   C30       1.0  0.7481426990899724  0.060874143412403846  0.0192403788758162  1.0000
  C   C31       1.0  0.7951472847524629  0.11757437843919921  0.9448639892989039  1.0000
  C   C32       1.0  0.842113077334521  0.17422763924802176  0.00411624132480126  1.0000
  C   C33       1.0  0.8421130687048464  0.17422762337585843  0.13500854055315425  1.0000
  H   H20       1.0  0.8426814609658096  0.17491386604259734  0.5004353649849138  1.0000
  H   H21       1.0  0.7112983136911546  0.016429740644163356  0.2048614433994158  1.0000
  H   H22       1.0  0.7112983025646233  0.016429789356218426  0.9763574127923489  1.0000
  H   H23       1.0  0.8789623126605172  0.21867783256950457  0.9494214298949637  1.0000
  H   H24       1.0  0.8789622797403324  0.2186777968774516  0.17784579877757523  1.0000
  H   H25       1.0  0.842681641760274  0.17491350409930928  0.6385063486146577  1.0000
  Zn  Zn1       1.0  0.7266713086447077  0.11854797225682767  0.5777343232125299  1.0000
  Zn  Zn2       1.0  0.8636173253621687  0.11660029922510584  0.5765027345786912  1.0000
  C   C34       1.0  0.7949829880981955  0.11346743972464425  0.8059674004930169  1.0000
  C   C35       1.0  0.7953071929576112  0.12168211124520248  0.34826972659451655  1.0000
  C   C36       1.0  0.8026136526706662  0.3058604208246269  0.5663141863218479  1.0000
  C   C37       1.0  0.7876764325186689  0.9292878922223933  0.5879230461990842  1.0000
  O   O2        1.0  0.8473309650181727  0.12231709179311089  0.39441730811727777  1.0000
  O   O3        1.0  0.8468980431580786  0.11135344269592459  0.7588847352191918  1.0000
  O   O4        1.0  0.8530592007187291  0.2667132180393925  0.5653630423888665  1.0000
  O   O5        1.0  0.8411697610196907  0.9669573244889418  0.5879389072439867  1.0000
  O   O6        1.0  0.7491188262542761  0.2681909476587596  0.5662981509608935  1.0000
  O   O7        1.0  0.7429577178271874  0.11283241090388565  0.7598197387714798  1.0000
  O   O8        1.0  0.7433906383037182  0.12379602407568081  0.39535080715597465  1.0000
  O   O9        1.0  0.737229434010158  0.9684362493979806  0.5888725003999592  1.0000
