data_image0
_chemical_formula_structural       NC5NC3F3CH3C6NH7C9H10Zn2C4O8
_chemical_formula_sum              "N3 C28 F3 H20 Zn2 O8"
_cell_length_a       13.85151926108384
_cell_length_b       9.274771166103582
_cell_length_c       10.297187173949778
_cell_angle_alpha    85.46307945309522
_cell_angle_beta     89.97408904731064
_cell_angle_gamma    90.59705350001695

_space_group_name_H-M_alt    "P 1"
_space_group_IT_number       1

loop_
  _space_group_symop_operation_xyz
  'x, y, z'

loop_
  _atom_site_type_symbol
  _atom_site_label
  _atom_site_symmetry_multiplicity
  _atom_site_fract_x
  _atom_site_fract_y
  _atom_site_fract_z
  _atom_site_occupancy
  N   N1        1.0  0.9205780500460948  0.578464030498206  0.5645724173246953  1.0000
  C   C1        1.0  0.8481662929432128  0.5693896582975904  0.6208750524990367  1.0000
  C   C2        1.0  0.7580803667627536  0.5580998949087175  0.6909235850614885  1.0000
  C   C3        1.0  0.670641482454548  0.5673141933200165  0.6228542862823707  1.0000
  C   C4        1.0  0.5830283771731881  0.558099881757514  0.6909235670087712  1.0000
  C   C5        1.0  0.4931470409082344  0.5693896744626603  0.6208751372350874  1.0000
  N   N2        1.0  0.4208998641365333  0.578463992613469  0.5645725124090542  1.0000
  C   C6        1.0  0.582837875042832  0.5386730866669336  0.827222423745625  1.0000
  C   C7        1.0  0.6702631891200043  0.5262683868802888  0.8964342462882167  1.0000
  C   C8        1.0  0.6701052615985564  0.5107076342390309  0.04335559550230438  1.0000
  F   F1        1.0  0.7505019132922545  0.43588164174206123  0.08997647970696798  1.0000
  F   F2        1.0  0.5886330983879742  0.4358816111475943  0.08997656923210617  1.0000
  F   F3        1.0  0.671037542561404  0.6465601958217231  0.08973532503314785  1.0000
  C   C9        1.0  0.7579082012130075  0.5386729913934907  0.8272224415790982  1.0000
  H   H1        1.0  0.6707830097447667  0.5825153451160616  0.5173266131639012  1.0000
  H   H2        1.0  0.5146610740073673  0.5335009490665659  0.8791803310951382  1.0000
  H   H3        1.0  0.825977826974346  0.5335008681434368  0.8791802942471285  1.0000
  C   C10       1.0  0.16777941341891256  0.15486757194452294  0.5652804701738305  1.0000
  C   C11       1.0  0.14560286453726778  0.23816044319587146  0.44911826700878277  1.0000
  C   C12       1.0  0.1324402540977774  0.1730950764516166  0.3322190659231512  1.0000
  C   C13       1.0  0.14150508734986422  0.023359249699049574  0.33063535618235096  1.0000
  C   C14       1.0  0.16189695685694439  0.938746732228187  0.4452018301596039  1.0000
  C   C15       1.0  0.17370766023538464  0.002049418607004801  0.5638756939020275  1.0000
  N   N3        1.0  0.11085727508033275  0.25948727113993386  0.21478017291847706  1.0000
  H   H4        1.0  0.27633355833255524  0.23456675067216756  0.8495651241650916  1.0000
  H   H5        1.0  0.14073530084720187  0.3547530831159418  0.4486192930517212  1.0000
  H   H6        1.0  0.13183471212389786  0.9718597312064002  0.2406932149822403  1.0000
  H   H7        1.0  0.16615277656943594  0.8225822082684031  0.4414816241627437  1.0000
  H   H8        1.0  0.24290969513606708  0.7050095468954122  0.7572899141543186  1.0000
  H   H9        1.0  0.10420571464068806  0.37156116667220784  0.2147379817595907  1.0000
  H   H10       1.0  0.10127707227738705  0.21200525241894305  0.1269742645729726  1.0000
  C   C16       1.0  0.17087079456990462  0.5784063345759132  0.18312500148986866  1.0000
  C   C17       1.0  0.07331190327291197  0.6180269719314004  0.1795773827912852  1.0000
  C   C18       1.0  0.02332960610298929  0.6383255503269081  0.06114342979808818  1.0000
  C   C19       1.0  0.07293371319686992  0.6181800076523827  0.9443544039065835  1.0000
  C   C20       1.0  0.17061627419439374  0.5785106465288863  0.9460311381848228  1.0000
  C   C21       1.0  0.21894690170510317  0.5588814443775405  0.0658049843946431  1.0000
  C   C22       1.0  0.9178126314076716  0.681177806242329  0.06673859710298347  1.0000
  C   C23       1.0  0.8498186697980904  0.623158463672643  0.9665629538999063  1.0000
  C   C24       1.0  0.8796399792881037  0.7822974916817723  0.9551995708179386  1.0000
  H   H11       1.0  0.20846605466823492  0.5631523229583257  0.5120294014721611  1.0000
  H   H12       1.0  0.035648895421332094  0.6333230731496011  0.2696301649434749  1.0000
  H   H13       1.0  0.03631578096550702  0.6330479600077772  0.8517226460020852  1.0000
  H   H14       1.0  0.29421544106653497  0.5283125728102738  0.06781470069005247  1.0000
  H   H15       1.0  0.35510733554154816  0.5035679353212192  0.7419828991297598  1.0000
  H   H16       1.0  0.8838979062869915  0.69495246559233  0.16279303484632357  1.0000
  H   H17       1.0  0.8820575733387298  0.5580512199634337  0.8921459362550967  1.0000
  H   H18       1.0  0.7746491973321417  0.603640418773495  0.0017138903470126394  1.0000
  H   H19       1.0  0.9299941699221674  0.8138583252780793  0.8738808480011508  1.0000
  H   H20       1.0  0.8218988911124866  0.8557896363369187  0.9837066923700752  1.0000
  Zn  Zn1       1.0  0.06496008877947457  0.5784601696970271  0.564579938334993  1.0000
  Zn  Zn2       1.0  0.27651772208239866  0.578456089170078  0.5645756021229642  1.0000
  C   C25       1.0  0.17062200907587188  0.5727443658383384  0.8018350686838305  1.0000
  C   C26       1.0  0.17085812468226313  0.5841737130593504  0.3273205962033179  1.0000
  C   C27       1.0  0.17258384140048366  0.8419132778369852  0.5589648905277222  1.0000
  C   C28       1.0  0.16889620801740368  0.31500306800259525  0.5701908464886036  1.0000
  O   O1        1.0  0.25113884781236107  0.5861014563378556  0.37571231989755877  1.0000
  O   O2        1.0  0.25090862702222494  0.5708124372797232  0.7534396817809335  1.0000
  O   O3        1.0  0.2524917487040131  0.7881697380296337  0.557320292108149  1.0000
  O   O4        1.0  0.2495556540449857  0.3687441658949171  0.5718316121585578  1.0000
  O   O5        1.0  0.09192208462266382  0.7881720929751495  0.5573239282940434  1.0000
  O   O6        1.0  0.09033897508689885  0.5708165252863087  0.7534432458322959  1.0000
  O   O7        1.0  0.0905691961105444  0.5861054938639745  0.3757143222870518  1.0000
  O   O8        1.0  0.0889860022345319  0.36874819311702556  0.571833711954481  1.0000
