data_image0
_chemical_formula_structural       NC9NC3SH6C7F3H5C9H9Zn2C4O8
_chemical_formula_sum              "N2 C32 S1 H20 F3 Zn2 O8"
_cell_length_a       16.77567553997237
_cell_length_b       9.272718291674593
_cell_length_c       9.272679976505533
_cell_angle_alpha    86.45423910102922
_cell_angle_beta     90.7858477527611
_cell_angle_gamma    90.46558260785916

_space_group_name_H-M_alt    "P 1"
_space_group_IT_number       1

loop_
  _space_group_symop_operation_xyz
  'x, y, z'

loop_
  _atom_site_type_symbol
  _atom_site_label
  _atom_site_symmetry_multiplicity
  _atom_site_fract_x
  _atom_site_fract_y
  _atom_site_fract_z
  _atom_site_occupancy
  N   N1        1.0  0.7382022598227499  0.5854832633323823  0.429406229920414  1.0000
  C   C1        1.0  0.6834068376586838  0.6406226575917671  0.47601008736726463  1.0000
  C   C2        1.0  0.6154049206408447  0.7090469963332351  0.533841913124325  1.0000
  C   C3        1.0  0.6175444099031708  0.8077044246349527  0.6401219044909814  1.0000
  C   C4        1.0  0.541844526147589  0.8562525184078252  0.6754761555608573  1.0000
  C   C5        1.0  0.4797861440618986  0.7956107846907936  0.5966188353376518  1.0000
  C   C6        1.0  0.3932239540099482  0.8246448871217025  0.6088871028308065  1.0000
  C   C7        1.0  0.3365194151060789  0.7357603952117704  0.5434999966910763  1.0000
  C   C8        1.0  0.2548115131244489  0.7625529982633688  0.5545781257530875  1.0000
  C   C9        1.0  0.1974456249205913  0.6706933082618981  0.48761924272913304  1.0000
  N   N2        1.0  0.15134045837302787  0.5968512837124279  0.4337941908629712  1.0000
  C   C10       1.0  0.2289762320934928  0.8785766915609846  0.6308671347826247  1.0000
  C   C11       1.0  0.284586456900392  0.967633264508101  0.6957430952817174  1.0000
  C   C12       1.0  0.3661363123704181  0.9412466020694124  0.684995118432802  1.0000
  S   S1        1.0  0.5204036279366787  0.6813581908647222  0.48349640939289884  1.0000
  H   H1        1.0  0.6719971309602729  0.8434918839878418  0.691206355769642  1.0000
  H   H2        1.0  0.5335840124570834  0.9323012887013283  0.7576367256556289  1.0000
  H   H3        1.0  0.3554611583539097  0.645030537001352  0.48458001108174376  1.0000
  H   H4        1.0  0.16593862149070565  0.9002523334202147  0.6400117534971423  1.0000
  H   H5        1.0  0.2644654748591806  0.05768134986798712  0.7543054194623107  1.0000
  H   H6        1.0  0.4074746677251607  0.013414415223636395  0.7352365466902329  1.0000
  C   C13       1.0  0.9464991910143196  0.1678063963116243  0.4284337650439567  1.0000
  C   C14       1.0  0.8975292059861124  0.24696591072526555  0.32827768937721413  1.0000
  C   C15       1.0  0.8429616698057478  0.17721907131782677  0.2394379483231994  1.0000
  C   C16       1.0  0.8394656740635726  0.02590235600292256  0.2478297372987992  1.0000
  C   C17       1.0  0.8884834434973776  0.9457598651166003  0.3448665473931769  1.0000
  C   C18       1.0  0.9430512338121064  0.014517388218781013  0.43477920361388905  1.0000
  C   C19       1.0  0.7925069634127342  0.26386089606166896  0.13009395707245863  1.0000
  F   F1        1.0  0.7722213765123336  0.39514561911604607  0.18227586743565682  1.0000
  F   F2        1.0  0.7228063084746005  0.1902990005414181  0.09923198407835088  1.0000
  F   F3        1.0  0.835032835387011  0.28879204909006295  0.004255485411605917  1.0000
  H   H7        1.0  0.042330257360896135  0.25165234012220067  0.740597372860631  1.0000
  H   H8        1.0  0.9006858028847461  0.3639673408210252  0.32160095221778806  1.0000
  H   H9        1.0  0.7993573300590314  0.9691455254587957  0.17807371967692864  1.0000
  H   H10       1.0  0.8852371778832233  0.8289171350338487  0.34677184815939555  1.0000
  H   H11       1.0  0.11484048578469852  0.9047337658171792  0.6101295862204148  1.0000
  C   C20       1.0  0.9431728401156785  0.5877130956901799  0.008201110698691897  1.0000
  C   C21       1.0  0.9977100237237224  0.5000253816178981  0.08837440021196041  1.0000
  C   C22       1.0  0.056125281077926026  0.4241283693654021  0.019809704859087954  1.0000
  C   C23       1.0  0.06197839743434596  0.43342456097566956  0.8690784685387657  1.0000
  C   C24       1.0  0.006492326985652276  0.5191293130768545  0.7874960761112892  1.0000
  C   C25       1.0  0.9463775868991106  0.5946107169368045  0.8550118634979311  1.0000
  C   C26       1.0  0.12786550163903376  0.3483821590779359  0.8029754262831856  1.0000
  C   C27       1.0  0.10915267530696626  0.28188236819165013  0.6601795044411691  1.0000
  C   C28       1.0  0.1646968741053938  0.41251357576081293  0.6639239722792079  1.0000
  H   H12       1.0  0.8227474847879862  0.6818853398014156  0.2806076615562365  1.0000
  H   H13       1.0  0.09766436810493717  0.3586384240987526  0.08538111305081975  1.0000
  H   H14       1.0  0.00825011609038784  0.525410787996119  0.6707828186513298  1.0000
  H   H15       1.0  0.7648456244543184  0.725258214767847  0.7394033533439535  1.0000
  H   H16       1.0  0.16979328745428296  0.28467442262032683  0.8751181845140068  1.0000
  H   H17       1.0  0.04984027912191947  0.3048552370390254  0.610053375410291  1.0000
  H   H18       1.0  0.14053860611894553  0.1789458702906308  0.6454365596584806  1.0000
  H   H19       1.0  0.13916312353608684  0.5147727641425626  0.6159556181926984  1.0000
  H   H20       1.0  0.2285553071148781  0.385916107635746  0.6513657040400771  1.0000
  Zn  Zn1       1.0  0.8574250697404822  0.5887600472107244  0.4306808069150099  1.0000
  Zn  Zn2       1.0  0.032117736193529874  0.5935628353964683  0.4325313664087831  1.0000
  C   C29       1.0  0.9457934386550841  0.5875635057419144  0.6949033960733781  1.0000
  C   C30       1.0  0.9437512680455337  0.594761249510525  0.16830895260715661  1.0000
  C   C31       1.0  0.9436771346369228  0.8544240797689996  0.42783409397991146  1.0000
  C   C32       1.0  0.9458675197976285  0.3278989423648864  0.4353783179589356  1.0000
  O   O1        1.0  0.010240375855470553  0.5989430178146833  0.2227448375032204  1.0000
  O   O2        1.0  0.011892025427965752  0.5870258515623077  0.6418716198101515  1.0000
  O   O3        1.0  0.010182195155088667  0.8025191276435748  0.4262112705769474  1.0000
  O   O4        1.0  0.011950146066443292  0.38344974952712857  0.4384050780744397  1.0000
  O   O5        1.0  0.8775926002535  0.7988731314426168  0.42480709461027577  1.0000
  O   O6        1.0  0.8793024231783754  0.5833815868424534  0.6404673799460903  1.0000
  O   O7        1.0  0.8776507673030204  0.5952986887371581  0.2213388637569518  1.0000
  O   O8        1.0  0.8793605379618292  0.3798054110184422  0.43699921235107864  1.0000
