data_image0
_chemical_formula_structural       NC5NC3F3CH3C6NH7C6NCH7Zn2C4O8
_chemical_formula_sum              "N4 C26 F3 H17 Zn2 O8"
_cell_length_a       13.85151926108384
_cell_length_b       9.274771166103582
_cell_length_c       9.273390368590327
_cell_angle_alpha    86.06293122453995
_cell_angle_beta     89.99084653650657
_cell_angle_gamma    90.59705350001695

_space_group_name_H-M_alt    "P 1"
_space_group_IT_number       1

loop_
  _space_group_symop_operation_xyz
  'x, y, z'

loop_
  _atom_site_type_symbol
  _atom_site_label
  _atom_site_symmetry_multiplicity
  _atom_site_fract_x
  _atom_site_fract_y
  _atom_site_fract_z
  _atom_site_occupancy
  N   N1        1.0  0.9201490868648535  0.5617334601277023  0.40733545362562507  1.0000
  C   C1        1.0  0.8477541552415622  0.5533153211019248  0.4698054883329821  1.0000
  C   C2        1.0  0.7576891623646929  0.5428420056603616  0.5475271481953622  1.0000
  C   C3        1.0  0.6702299362271245  0.5512629250067462  0.4720015276969658  1.0000
  C   C4        1.0  0.5826371727697325  0.5428419922987455  0.5475271281651473  1.0000
  C   C5        1.0  0.49273490323190655  0.5533153382546327  0.46980558235103365  1.0000
  N   N2        1.0  0.42047090098370665  0.5617334233512175  0.40733555912553965  1.0000
  C   C6        1.0  0.5824874021899548  0.5250038232326171  0.6987561831562481  1.0000
  C   C7        1.0  0.6699333995282931  0.5134058191521824  0.7755494796512865  1.0000
  C   C8        1.0  0.6698193779830937  0.49955750258337006  0.9385646166201965  1.0000
  F   F1        1.0  0.7502299618619069  0.42527489798930435  0.9902923598303454  1.0000
  F   F2        1.0  0.5883611469843796  0.42527486843829476  0.9902924591620814  1.0000
  F   F3        1.0  0.6707655190643931  0.6359506413000433  0.9900247890355375  1.0000
  C   C9        1.0  0.7575577283654599  0.5250037281670323  0.6987562029432031  1.0000
  H   H1        1.0  0.6703399276273295  0.5652341031124062  0.3549143366288332  1.0000
  H   H2        1.0  0.5143261282556106  0.5204372790008787  0.7564055678679067  1.0000
  H   H3        1.0  0.8256428812115778  0.5204371976482687  0.7564055269835606  1.0000
  C   C10       1.0  0.16735066183218583  0.13814525425646873  0.4081210666954781  1.0000
  C   C11       1.0  0.14513939903755024  0.22008420146601804  0.27923443748294907  1.0000
  C   C12       1.0  0.13194185444060882  0.15365632062936063  0.1495300794814285  1.0000
  C   C13       1.0  0.141006214416874  0.003902035009495376  0.1477728899259523  1.0000
  C   C14       1.0  0.16143232096923188  0.9206248426209362  0.2748889935238912  1.0000
  C   C15       1.0  0.17327848884531427  0.9853107276037418  0.40656241100940066  1.0000
  N   N3        1.0  0.11032377998417965  0.23867971086709924  0.019226911622972864  1.0000
  H   H4        1.0  0.2759897623723091  0.22115790171375144  0.7235463065019538  1.0000
  H   H5        1.0  0.1402716862341058  0.33667102561453555  0.2786808058399681  1.0000
  H   H6        1.0  0.13130896088127875  0.9513541993876613  0.04797847239954866  1.0000
  H   H7        1.0  0.165687028935357  0.8044169579448235  0.27076127557565055  1.0000
  H   H8        1.0  0.2425383236519052  0.6905251878150148  0.6211632554395646  1.0000
  H   H9        1.0  0.10367220693612822  0.35075311464196157  0.019180098837890742  1.0000
  H   H10       1.0  0.10071733726343494  0.19017427379588955  0.9218027302348442  1.0000
  C   C16       1.0  0.17032783964226805  0.557229818683465  0.984104227725688  1.0000
  C   C17       1.0  0.25897609313973335  0.5543637482778463  0.057711999202355375  1.0000
  C   C18       1.0  0.3461715980965844  0.5649067666410961  0.9822778250794576  1.0000
  C   C19       1.0  0.346935141420774  0.5787066316576546  0.8306244462735104  1.0000
  C   C20       1.0  0.25885830286005396  0.5791400821472148  0.7562115486509603  1.0000
  C   C21       1.0  0.17030131969605483  0.566226152066744  0.8305792099362463  1.0000
  N   N4        1.0  0.43577396731707707  0.590910498173921  0.7498137334972435  1.0000
  C   C22       1.0  0.5310942076041765  0.5910805048842639  0.8168016318046377  1.0000
  H   H11       1.0  0.017464371692119233  0.4879408852709015  0.27007168606102905  1.0000
  H   H12       1.0  0.41267872120846816  0.5635794572351489  0.04340128089501196  1.0000
  H   H13       1.0  0.9445306091592577  0.4541625944709864  0.7352942791854624  1.0000
  H   H14       1.0  0.43270845314742745  0.6004702688185153  0.6369203106964658  1.0000
  H   H15       1.0  0.5380071537399006  0.6836122471754162  0.886099918726652  1.0000
  H   H16       1.0  0.5421487288708968  0.48797148076355307  0.8825452819478775  1.0000
  H   H17       1.0  0.5877467637453646  0.6019852545718061  0.7318910093473185  1.0000
  Zn  Zn1       1.0  0.06453112784581161  0.5617296869873665  0.4073437984885766  1.0000
  Zn  Zn2       1.0  0.27608875985290204  0.5617255559198671  0.40733898728719814  1.0000
  C   C23       1.0  0.17026394946576473  0.5587792010743355  0.6705878932187099  1.0000
  C   C24       1.0  0.1703582611663952  0.5646778633137612  0.14409503061624895  1.0000
  C   C25       1.0  0.1721532024659247  0.8251173491559591  0.4011136774592938  1.0000
  C   C26       1.0  0.16846892384754303  0.29833798301472836  0.41356932640588406  1.0000
  O   O1        1.0  0.25065344567928416  0.5671696344459791  0.19778759135283375  1.0000
  O   O2        1.0  0.250536104934614  0.5562832019656218  0.6168912680050158  1.0000
  O   O3        1.0  0.2520606182976597  0.7713546407956817  0.3992889294695725  1.0000
  O   O4        1.0  0.24912886020154046  0.3520982047875123  0.41538982180598905  1.0000
  O   O5        1.0  0.09149095530294796  0.7713570381226207  0.3992929639638432  1.0000
  O   O6        1.0  0.089966454064369  0.5562873315128694  0.6168952224631263  1.0000
  O   O7        1.0  0.09008379457586124  0.5671736953108708  0.19778981308438737  1.0000
  O   O8        1.0  0.08855920901858984  0.35210225648371013  0.4153921516138892  1.0000
