data_image0
_chemical_formula_structural       NC9NC3OH6C6NCOCH9C9H10Zn2C4O8
_chemical_formula_sum              "N3 C33 O10 H25 Zn2"
_cell_length_a       15.78231758774541
_cell_length_b       10.300268703208218
_cell_length_c       9.272679976505533
_cell_angle_alpha    86.02026342835288
_cell_angle_beta     90.48255963298988
_cell_angle_gamma    89.61162997741629

_space_group_name_H-M_alt    "P 1"
_space_group_IT_number       1

loop_
  _space_group_symop_operation_xyz
  'x, y, z'

loop_
  _atom_site_type_symbol
  _atom_site_label
  _atom_site_symmetry_multiplicity
  _atom_site_fract_x
  _atom_site_fract_y
  _atom_site_fract_z
  _atom_site_occupancy
  N   N1        1.0  0.7910998551409828  0.4017613633176676  0.41241657496820605  1.0000
  C   C1        1.0  0.7426957356009012  0.3198947735336952  0.43914856276109915  1.0000
  C   C2        1.0  0.6826001869829867  0.21827843893987084  0.47232984635761693  1.0000
  C   C3        1.0  0.7024618697017422  0.09063131255251844  0.5139227308262431  1.0000
  C   C4        1.0  0.6258281150150349  0.028769114322858117  0.534163032017404  1.0000
  C   C5        1.0  0.563900294870731  0.12324292699406136  0.5034253635478056  1.0000
  C   C6        1.0  0.4708369359321996  0.10577689665980784  0.5092101607828117  1.0000
  C   C7        1.0  0.41692425801954563  0.21287348528592465  0.474181954649169  1.0000
  C   C8        1.0  0.32874045430428356  0.19855181640402916  0.47893329897580394  1.0000
  C   C9        1.0  0.2741263661374288  0.30876436989704836  0.4428767744345503  1.0000
  N   N2        1.0  0.23022955047020383  0.39736103325763295  0.4138905512939812  1.0000
  C   C10       1.0  0.2937882998449473  0.07697417689435992  0.5187672396628691  1.0000
  C   C11       1.0  0.3467697184522615  0.9700990422925663  0.5537278628922484  1.0000
  C   C12       1.0  0.4347684773002686  0.9840272617879552  0.5491056336515223  1.0000
  O   O1        1.0  0.600183865884197  0.23520589612205603  0.46688903904557927  1.0000
  H   H1        1.0  0.7649891894337767  0.04758371568289353  0.5278928940132337  1.0000
  H   H2        1.0  0.6172546917949658  0.927050574778291  0.5673242117121875  1.0000
  H   H3        1.0  0.443381448105058  0.3074824085577945  0.4431788440904818  1.0000
  H   H4        1.0  0.2256912099389004  0.06484445062643762  0.522789025064198  1.0000
  H   H5        1.0  0.3195812008664956  0.8761369181068875  0.5845194903418234  1.0000
  H   H6        1.0  0.47398742083396705  0.8993746946411943  0.5768060677264042  1.0000
  C   C13       1.0  0.010754863743721806  0.01821272030486787  0.41316237531167604  1.0000
  C   C14       1.0  0.024431989685545597  0.026376432239702645  0.26334620765006034  1.0000
  C   C15       1.0  0.032481019024145553  0.9131803844129733  0.1881655896608032  1.0000
  C   C16       1.0  0.02424044915198719  0.7912190931903614  0.2633815304888951  1.0000
  C   C17       1.0  0.01058266466570191  0.7808997329829179  0.41315721121146187  1.0000
  C   C18       1.0  0.00423131548957989  0.8949902654899706  0.48734556995320194  1.0000
  N   N3        1.0  0.04516321034151758  0.9199589456231761  0.03441350462821501  1.0000
  C   C19       1.0  0.09459266892749912  0.018010291449366056  0.9571143048472748  1.0000
  O   O2        1.0  0.14270708827966716  0.09100572066533541  0.023849367911603858  1.0000
  C   C20       1.0  0.09397265113958791  0.027732890058449026  0.7956137317909864  1.0000
  H   H7        1.0  0.004321342630514425  0.34256748166488216  0.46977985257218524  1.0000
  H   H8        1.0  0.027145044903622562  0.12077374032493005  0.20470588670396261  1.0000
  H   H9        1.0  0.029260993351908557  0.7043791692470595  0.20438521714713476  1.0000
  H   H10       1.0  0.9937056752659542  0.8878843375494555  0.6029006482181178  1.0000
  H   H11       1.0  0.004153174551252419  0.44961567025149884  0.4695659523906299  1.0000
  H   H12       1.0  0.021588966688321765  0.844351632120936  0.9764081901619955  1.0000
  H   H13       1.0  0.028955822034919296  0.01105332580507823  0.7545224437928324  1.0000
  H   H14       1.0  0.11480922185476511  0.1258795911510422  0.7536460953946413  1.0000
  H   H15       1.0  0.13754703410978888  0.953283330765676  0.7560742621647307  1.0000
  C   C21       1.0  0.00895154015934075  0.39650693381109936  0.9897913837260975  1.0000
  C   C22       1.0  0.06655192309106783  0.3156012292235446  0.07025142064527645  1.0000
  C   C23       1.0  0.1283225492845116  0.24517705533382014  0.0018581604436453904  1.0000
  C   C24       1.0  0.13458157678969096  0.25334199927195367  0.8510168691641065  1.0000
  C   C25       1.0  0.07596453926863876  0.3324954303645189  0.7691691536604957  1.0000
  C   C26       1.0  0.012385990666724524  0.4026055163045381  0.8365282697792075  1.0000
  C   C27       1.0  0.20425555245196547  0.17441655728286642  0.7851029553611872  1.0000
  C   C28       1.0  0.18409330252296885  0.11518856468771511  0.6429357655058645  1.0000
  C   C29       1.0  0.24366440314670423  0.23086955580965607  0.6453165541862118  1.0000
  H   H16       1.0  0.8813520326376001  0.4855873313411512  0.26231345955790575  1.0000
  H   H17       1.0  0.06521203618394389  0.3090641213470502  0.18732156428424185  1.0000
  H   H18       1.0  0.1722001260738414  0.18472366190051615  0.06763819703210806  1.0000
  H   H19       1.0  0.07785862356813439  0.3380903687984056  0.65239657415577  1.0000
  H   H20       1.0  0.8199928973736309  0.5267014271902133  0.7211790471254238  1.0000
  H   H21       1.0  0.24855358862473664  0.11555448401618973  0.8574382641570835  1.0000
  H   H22       1.0  0.12115091098361058  0.13797998707520787  0.5930427629830848  1.0000
  H   H23       1.0  0.21702566754412944  0.02136981251116454  0.6287528627999492  1.0000
  H   H24       1.0  0.2169489347160276  0.32387095097354157  0.5967531912415415  1.0000
  H   H25       1.0  0.31142336742331067  0.2046526686329162  0.6325213224458772  1.0000
  Zn  Zn1       1.0  0.9178232303691451  0.4004881142386489  0.4128502514286943  1.0000
  Zn  Zn2       1.0  0.10350619694547464  0.39862376831807445  0.41346866038112445  1.0000
  C   C30       1.0  0.011736092169722928  0.39627935523780633  0.6764768538867271  1.0000
  C   C31       1.0  0.009595363001159594  0.4028341465112983  0.149842206169148  1.0000
  C   C32       1.0  0.010587561483844432  0.6366942992753639  0.4074130806862364  1.0000
  C   C33       1.0  0.010743830990423534  0.16241764344451898  0.41890605603291275  1.0000
  O   O3        1.0  0.08027715522810358  0.40424444189462805  0.20379140727618217  1.0000
  O   O4        1.0  0.08198337370064052  0.39345308177963667  0.6229965958551364  1.0000
  O   O5        1.0  0.08105497681556167  0.5875912098866085  0.40572569215210463  1.0000
  O   O6        1.0  0.0812054883116073  0.2101063229349844  0.42106220266975747  1.0000
  O   O7        1.0  0.9401238756384975  0.5890055602593074  0.4052567089214445  1.0000
  O   O8        1.0  0.9410522718556755  0.3948689918191268  0.6225275357425861  1.0000
  O   O9        1.0  0.9393460464190218  0.4056602941956428  0.20332061380906818  1.0000
  O   O10       1.0  0.9402743799395863  0.21152216672623966  0.4205915172934842  1.0000
