data_image0
_chemical_formula_structural       NC5NC3OH4C6NH7C6H6Zn2C4O8
_chemical_formula_sum              "N3 C24 O9 H17 Zn2"
_cell_length_a       13.84702359539666
_cell_length_b       9.274771166103582
_cell_length_c       10.681121600428288
_cell_angle_alpha    85.45578074471726
_cell_angle_beta     89.98558129558303
_cell_angle_gamma    90.59789355945463

_space_group_name_H-M_alt    "P 1"
_space_group_IT_number       1

loop_
  _space_group_symop_operation_xyz
  'x, y, z'

loop_
  _atom_site_type_symbol
  _atom_site_label
  _atom_site_symmetry_multiplicity
  _atom_site_fract_x
  _atom_site_fract_y
  _atom_site_fract_z
  _atom_site_occupancy
  N   N1        1.0  0.9203983122974204  0.5787077758097239  0.6158548336649106  1.0000
  C   C1        1.0  0.8481935340543643  0.5700361419964517  0.6706528271405634  1.0000
  C   C2        1.0  0.7582715266755897  0.5592381263528923  0.7388878751308801  1.0000
  C   C3        1.0  0.6707603918439854  0.5696696944269163  0.6729679208035715  1.0000
  C   C4        1.0  0.5828268299341319  0.5593593283380283  0.7381216310467087  1.0000
  C   C5        1.0  0.49305095093697093  0.5700994380053226  0.6702525953711096  1.0000
  N   N2        1.0  0.4208827678723961  0.5787336616007254  0.6156913013494056  1.0000
  C   C6        1.0  0.5823988327560063  0.5385862790421609  0.8693911434540669  1.0000
  C   C7        1.0  0.6695296709283464  0.5281449871391481  0.9353702161443614  1.0000
  C   C8        1.0  0.7577781969709191  0.538388907445029  0.8706376849835138  1.0000
  O   O1        1.0  0.8446292787109116  0.5279297907494263  0.9367309442788534  1.0000
  H   H1        1.0  0.6710965482863488  0.5857629836238716  0.5712715977263028  1.0000
  H   H2        1.0  0.5147873167691419  0.530471474164149  0.9206701118120624  1.0000
  H   H3        1.0  0.6684153841006704  0.5120836184395225  0.03686544805310865  1.0000
  H   H4        1.0  0.8460561550951794  0.5128978436830816  0.03172030879641208  1.0000
  C   C9        1.0  0.16768026720429163  0.15512401061675907  0.616456602593406  1.0000
  C   C10       1.0  0.14545774801604594  0.23843160509782368  0.5044760513659019  1.0000
  C   C11       1.0  0.13225185141526152  0.17338152865298276  0.3917820392198781  1.0000
  C   C12       1.0  0.14131910282138826  0.023646387285205746  0.3902522772361707  1.0000
  C   C13       1.0  0.16175583003616878  0.9390192722621877  0.5006950269522499  1.0000
  C   C14       1.0  0.1736099723035518  0.0023063559315748  0.6151003696545612  1.0000
  N   N3        1.0  0.11062266902461837  0.25978865170954757  0.2785704831142217  1.0000
  H   H5        1.0  0.2763645602827991  0.2347899655637473  0.8904897166293011  1.0000
  H   H6        1.0  0.14058843557569767  0.3550240613443296  0.5039966002972232  1.0000
  H   H7        1.0  0.13161557178967098  0.9721586567764481  0.3035454552378831  1.0000
  H   H8        1.0  0.16601179176790914  0.8228554767691124  0.49710711838288324  1.0000
  H   H9        1.0  0.2428990414621739  0.7052436395300611  0.8015414347028393  1.0000
  H   H10       1.0  0.1039689323503854  0.37186220885713994  0.27853198331681295  1.0000
  H   H11       1.0  0.10101005255647633  0.21231813377559122  0.1939230969130299  1.0000
  C   C15       1.0  0.1706451336473631  0.5787151451014931  0.24803324500954613  1.0000
  C   C16       1.0  0.10096113678056629  0.49848601899331996  0.18676177665994897  1.0000
  C   C17       1.0  0.10096107713306668  0.4984861114834142  0.05587963657868711  1.0000
  C   C18       1.0  0.17064505822373022  0.5787152158078737  0.9835236805975001  1.0000
  C   C19       1.0  0.24027153806405366  0.6588778560090562  0.044794693675309416  1.0000
  C   C20       1.0  0.24027152555183928  0.6588778336407206  0.17568699237820162  1.0000
  H   H12       1.0  0.2411141319437744  0.6598488360478469  0.5411382656424224  1.0000
  H   H13       1.0  0.04633953032186434  0.43559863815168826  0.23991698780052892  1.0000
  H   H14       1.0  0.04633951062806508  0.43559870605072404  0.01141295847288637  1.0000
  H   H15       1.0  0.29490027793666895  0.721773523785086  0.991683802324498  1.0000
  H   H16       1.0  0.2949002289258307  0.7217734732154943  0.22010816990575743  1.0000
  H   H17       1.0  0.24111442983171696  0.6598483334967267  0.6792092406350512  1.0000
  Zn  Zn1       1.0  0.06482728636139168  0.5787113842491147  0.6158148688345029  1.0000
  Zn  Zn2       1.0  0.27645368713497387  0.5787182502207449  0.6157415052349715  1.0000
  C   C21       1.0  0.17060272162412438  0.5729686323655259  0.8445094559220526  1.0000
  C   C22       1.0  0.17068057556510308  0.5844628222381034  0.38704703734550194  1.0000
  C   C23       1.0  0.17248414949813906  0.8421708279530515  0.610366408202649  1.0000
  C   C24       1.0  0.16879906334749342  0.31525889357825077  0.6211901546296321  1.0000
  O   O2        1.0  0.2510035423424921  0.5863881077000974  0.43367350493108847  1.0000
  O   O3        1.0  0.25089928871563827  0.5710474698130117  0.7978269483129635  1.0000
  O   O4        1.0  0.2524174828854726  0.788431647241311  0.6087547786527918  1.0000
  O   O5        1.0  0.24948527603113302  0.36900394058835007  0.6227455807036337  1.0000
  O   O6        1.0  0.09179562524753893  0.7884256938807372  0.6088107933842861  1.0000
  O   O7        1.0  0.09027744320360576  0.5710432495239912  0.797882893498177  1.0000
  O   O8        1.0  0.09038169654294116  0.5863838371439847  0.4337279445741684  1.0000
  O   O9        1.0  0.08886343015541343  0.3689996597149121  0.6228001142527866  1.0000
