data_image0
_chemical_formula_structural       NC5NC3BrH3C6ClH5C6NCH7Zn2C4O8
_chemical_formula_sum              "N3 C25 Br1 H15 Cl1 Zn2 O8"
_cell_length_a       13.839083392302014
_cell_length_b       10.30297070629231
_cell_length_c       9.273390368590327
_cell_angle_alpha    86.16779528597041
_cell_angle_beta     89.99157220175844
_cell_angle_gamma    90.02428142920579

_space_group_name_H-M_alt    "P 1"
_space_group_IT_number       1

loop_
  _space_group_symop_operation_xyz
  'x, y, z'

loop_
  _atom_site_type_symbol
  _atom_site_label
  _atom_site_symmetry_multiplicity
  _atom_site_fract_x
  _atom_site_fract_y
  _atom_site_fract_z
  _atom_site_occupancy
  N   N1        1.0  0.9100384481757058  0.40618191678356796  0.4101848767791788  1.0000
  C   C1        1.0  0.8380367643174782  0.3489059998664057  0.41264828866675374  1.0000
  C   C2        1.0  0.7483285378854917  0.2776349546104766  0.41571346708707224  1.0000
  C   C3        1.0  0.6607709572976834  0.34621317657043393  0.4127642941083569  1.0000
  C   C4        1.0  0.5727253473246052  0.27896037020488235  0.41565640823222716  1.0000
  C   C5        1.0  0.48296531179051033  0.34965479219752327  0.4126160682045017  1.0000
  N   N2        1.0  0.41080989083404196  0.406487563408276  0.4101716761432064  1.0000
  C   C6        1.0  0.5721714894378669  0.14284899702336773  0.4215097994377537  1.0000
  C   C7        1.0  0.6592840259044938  0.07416163610273417  0.42446357452611283  1.0000
  C   C8        1.0  0.7475256739036835  0.1407717473253993  0.4215991193169806  1.0000
  Br  Br1       1.0  0.8649301294732709  0.04169297678604188  0.4258600335696847  1.0000
  H   H1        1.0  0.661145059843395  0.45168796927931076  0.4082282119212173  1.0000
  H   H2        1.0  0.5044778291905958  0.08988301711860863  0.42378730313019664  1.0000
  H   H3        1.0  0.6581467228501002  0.9689111197766748  0.428989634362015  1.0000
  C   C9        1.0  0.16042877547459455  0.02508734122941747  0.4101845065651999  1.0000
  C   C10       1.0  0.2602030478308075  0.022270757664345057  0.4379428432499193  1.0000
  C   C11       1.0  0.3097083787672807  0.9039163992013552  0.45171568828326064  1.0000
  C   C12       1.0  0.26020304706655706  0.7871627883454819  0.4379427754657809  1.0000
  C   C13       1.0  0.16042878577804556  0.7875722838377264  0.41018458907102545  1.0000
  C   C14       1.0  0.11102800412949376  0.9071285152840999  0.39644069844343643  1.0000
  Cl  Cl1       1.0  0.43435021677100294  0.9019013312515337  0.4863923650094617  1.0000
  H   H4        1.0  0.12284555464719138  0.3534514095323871  0.39972762038169346  1.0000
  H   H5        1.0  0.299885700759813  0.11167579725462251  0.44898288461794955  1.0000
  H   H6        1.0  0.2998856625580813  0.6964746034125248  0.4489827810674434  1.0000
  H   H7        1.0  0.03407905746589157  0.9083724224517117  0.3750325903811109  1.0000
  H   H8        1.0  0.12284554990613428  0.46042344545666325  0.3997278925003447  1.0000
  C   C15       1.0  0.16047357711182686  0.4022812925322419  0.9869387485026556  1.0000
  C   C16       1.0  0.24922157103565046  0.39975587162504933  0.06053890207983547  1.0000
  C   C17       1.0  0.33642160050813624  0.40929825590519797  0.9851218226030463  1.0000
  C   C18       1.0  0.3370891829022886  0.42171912851115656  0.8334938168090664  1.0000
  C   C19       1.0  0.24893015425729237  0.42205544753400703  0.7590840457004748  1.0000
  C   C20       1.0  0.16038402766146032  0.41037832037270844  0.8334302856130728  1.0000
  N   N3        1.0  0.42592237844006386  0.43275734348139827  0.7527032113614668  1.0000
  C   C21       1.0  0.521327092134912  0.4329685837481885  0.8196889020502004  1.0000
  H   H9        1.0  0.007957995057910951  0.339825224211039  0.27278274992220886  1.0000
  H   H10       1.0  0.4029977891842893  0.40814425351083494  0.04624107745471839  1.0000
  H   H11       1.0  0.9351952528423066  0.3093789182720987  0.7379451159503874  1.0000
  H   H12       1.0  0.4227871576067608  0.4413596299884541  0.6398274606011072  1.0000
  H   H13       1.0  0.5275982064037095  0.5162549128469227  0.8891572743083688  1.0000
  H   H14       1.0  0.5331136704006307  0.34017327223949045  0.8852425284533333  1.0000
  H   H15       1.0  0.5779541905454197  0.4428178824563806  0.7347968474764257  1.0000
  Zn  Zn1       1.0  0.05455027133874135  0.4062667186398494  0.41018939696274703  1.0000
  Zn  Zn2       1.0  0.2662980585599757  0.4063922335148797  0.41017898417267373  1.0000
  C   C22       1.0  0.1603987784436689  0.40367575690001867  0.6734252667114402  1.0000
  C   C23       1.0  0.16045186371939793  0.408984836076133  0.14694325577345907  1.0000
  C   C24       1.0  0.16042443453417943  0.643391428305331  0.40444109117175664  1.0000
  C   C25       1.0  0.1604261353659735  0.16926760555740933  0.4159275081581282  1.0000
  O   O1        1.0  0.24080175822390593  0.4112765748312474  0.20063827847297322  1.0000
  O   O2        1.0  0.24076055497365886  0.40147829765174947  0.6197219260483258  1.0000
  O   O3        1.0  0.2407801891793833  0.5950517476231189  0.4025153012456872  1.0000
  O   O4        1.0  0.24078205177444123  0.21770313307061  0.4178447952121078  1.0000
  O   O5        1.0  0.08006620586514891  0.5949558190426274  0.4025235859192857  1.0000
  O   O6        1.0  0.0800465716632115  0.40138392814317836  0.6197301338729102  1.0000
  O   O7        1.0  0.08008777516108712  0.4111821435057867  0.2006447534446249  1.0000
  O   O8        1.0  0.08006806869623606  0.2176086934929262  0.4178513782432357  1.0000
