data_image0
_chemical_formula_structural       NC5NC3BrH3C6NH7C6ClH5Zn2C4O8
_chemical_formula_sum              "N3 C24 Br1 H15 Cl1 Zn2 O8"
_cell_length_a       13.839083392302014
_cell_length_b       9.274771166103582
_cell_length_c       10.302974078461048
_cell_angle_alpha    85.4557754151483
_cell_angle_beta     90.00087565585007
_cell_angle_gamma    90.6230172981901

_space_group_name_H-M_alt    "P 1"
_space_group_IT_number       1

loop_
  _space_group_symop_operation_xyz
  'x, y, z'

loop_
  _atom_site_type_symbol
  _atom_site_label
  _atom_site_symmetry_multiplicity
  _atom_site_fract_x
  _atom_site_fract_y
  _atom_site_fract_z
  _atom_site_occupancy
  N   N1        1.0  0.9209304414355012  0.5792850688004028  0.565341866203637  1.0000
  C   C1        1.0  0.8484831564185783  0.5156204391510846  0.5676663305228151  1.0000
  C   C2        1.0  0.758220448062246  0.43639962787239545  0.5705586257763817  1.0000
  C   C3        1.0  0.6711963994968496  0.5126272489639914  0.5677757846701974  1.0000
  C   C4        1.0  0.5826275691063172  0.4378728845210138  0.5705047875818381  1.0000
  C   C5        1.0  0.49341752942389266  0.516452753992725  0.5676359280926502  1.0000
  N   N2        1.0  0.4217042619936393  0.5796248086708056  0.56532941249438  1.0000
  C   C6        1.0  0.5810147777249922  0.286579283201732  0.5760280509813538  1.0000
  C   C7        1.0  0.6675929330756426  0.21023035046750782  0.5788152385528116  1.0000
  C   C8        1.0  0.7563528013860388  0.28427033161070914  0.5761123337452589  1.0000
  Br  Br1       1.0  0.8729864335784524  0.17414004795216553  0.5801329311488292  1.0000
  H   H1        1.0  0.6723910858583864  0.6298669854598822  0.5634955433810935  1.0000
  H   H2        1.0  0.5129090472000735  0.22770533848616537  0.5781771162777729  1.0000
  H   H3        1.0  0.6656367910424409  0.0932399107563404  0.5830860389102801  1.0000
  C   C9        1.0  0.1683553752584328  0.15585636417900717  0.566043362179738  1.0000
  C   C10       1.0  0.14612000317204443  0.23915003577756866  0.4499458381600845  1.0000
  C   C11       1.0  0.13290646707722997  0.174091690490342  0.33311149823421177  1.0000
  C   C12       1.0  0.14197896113348119  0.02436223499726075  0.33152843665568943  1.0000
  C   C13       1.0  0.16242750864597433  0.939747923222338  0.4460311569069211  1.0000
  C   C14       1.0  0.1742885088784687  0.003042427920012318  0.5646392135286759  1.0000
  N   N3        1.0  0.11126477481518471  0.2604852628538119  0.21573797435113048  1.0000
  H   H4        1.0  0.2771025190893146  0.23559044140842167  0.8501683724494349  1.0000
  H   H5        1.0  0.14124787526975147  0.3557394387240116  0.44944726106854666  1.0000
  H   H6        1.0  0.13226981656294012  0.9728684290614316  0.24163618817693064  1.0000
  H   H7        1.0  0.16668593106126028  0.8235867968564294  0.44231289845253574  1.0000
  H   H8        1.0  0.2436176474274556  0.7060231399939556  0.7579449355922016  1.0000
  H   H9        1.0  0.10460719093647342  0.3725546477130439  0.21569597239479066  1.0000
  H   H10       1.0  0.10164659744499249  0.213008726281505  0.12798077719533274  1.0000
  C   C15       1.0  0.17132194350589391  0.5794493972003041  0.18409878085994988  1.0000
  C   C16       1.0  0.15346444949879268  0.42961641174057236  0.193581190062289  1.0000
  C   C17       1.0  0.14460409755070813  0.35527336539351095  0.08132931169194402  1.0000
  C   C18       1.0  0.15346449328607803  0.42961649323552703  0.958473290955084  1.0000
  C   C19       1.0  0.1713219405196873  0.5794493227386455  0.9465838000568452  1.0000
  C   C20       1.0  0.18016365775918874  0.6536354738274326  0.06005042146371519  1.0000
  Cl  Cl1       1.0  0.12229584835097129  0.1680963714203496  0.09467863623514483  1.0000
  H   H11       1.0  0.1780491104465236  0.6358888970862204  0.5078298600542969  1.0000
  H   H12       1.0  0.1463621202664789  0.3700243345268983  0.2878777953508549  1.0000
  H   H13       1.0  0.14636218764525102  0.3700243139895074  0.8726768293093881  1.0000
  H   H14       1.0  0.1939358497765522  0.7691911693721665  0.05180897784675564  1.0000
  H   H15       1.0  0.17804892648750337  0.6358888841964219  0.6148022295986411  1.0000
  Zn  Zn1       1.0  0.06544292460504564  0.579379242884287  0.5653457817075047  1.0000
  Zn  Zn2       1.0  0.27719168816273165  0.5795188113259759  0.565336170958313  1.0000
  C   C21       1.0  0.17127952717637873  0.5737027941016186  0.8024673025766943  1.0000
  C   C22       1.0  0.1713574106278286  0.585197081699496  0.3282147743916847  1.0000
  C   C23       1.0  0.17316203495972426  0.8429061944890764  0.5597311491378203  1.0000
  C   C24       1.0  0.1694748184521229  0.31599194818681586  0.5709509999220213  1.0000
  O   O1        1.0  0.2517268218773756  0.5871727295006215  0.3765777815381501  1.0000
  O   O2        1.0  0.2516225203131712  0.5718319873094844  0.7540966291755253  1.0000
  O   O3        1.0  0.25314158589751123  0.7892171369499514  0.5580854654382494  1.0000
  O   O4        1.0  0.2502076841097953  0.3697875901314794  0.5725888479192134  1.0000
  O   O5        1.0  0.09242685639853263  0.7891104640327258  0.5580931047430531  1.0000
  O   O6        1.0  0.09090780294710221  0.5717270474714242  0.7541041963853145  1.0000
  O   O7        1.0  0.0910121042235712  0.5870677393954487  0.3765837879481615  1.0000
  O   O8        1.0  0.08949296637978099  0.36968258970892465  0.5725949516818856  1.0000
