data_image0
_chemical_formula_structural       NC9NC3SH6C9H10C6OCH7Zn2C4O8
_chemical_formula_sum              "N2 C32 S1 H23 O9 Zn2"
_cell_length_a       16.77567553997237
_cell_length_b       9.272676604525723
_cell_length_c       9.273891588657152
_cell_angle_alpha    86.3289676754197
_cell_angle_beta     90.06962488754225
_cell_angle_gamma    91.44448428757873

_space_group_name_H-M_alt    "P 1"
_space_group_IT_number       1

loop_
  _space_group_symop_operation_xyz
  'x, y, z'

loop_
  _atom_site_type_symbol
  _atom_site_label
  _atom_site_symmetry_multiplicity
  _atom_site_fract_x
  _atom_site_fract_y
  _atom_site_fract_z
  _atom_site_occupancy
  N   N1        1.0  0.7640147913452482  0.5850089027185083  0.42496714029961624  1.0000
  C   C1        1.0  0.7094187703928831  0.6402115641524535  0.47138881136352606  1.0000
  C   C2        1.0  0.6416643003697146  0.7087144128943901  0.5289945560087597  1.0000
  C   C3        1.0  0.6440026280292656  0.8075030818414464  0.6349422839610548  1.0000
  C   C4        1.0  0.568517483043717  0.8561024052126553  0.670137686844323  1.0000
  C   C5        1.0  0.5064302185638075  0.7953693402010676  0.5914883154494477  1.0000
  C   C6        1.0  0.4200576783008544  0.8244270867976815  0.603664021981233  1.0000
  C   C7        1.0  0.3629645274219754  0.7354482819678094  0.5385679246593111  1.0000
  C   C8        1.0  0.2814333101526023  0.7622625123203712  0.5495607054275049  1.0000
  C   C9        1.0  0.22366154644334266  0.6703058386077028  0.4829024025985887  1.0000
  N   N2        1.0  0.1772301121428796  0.5963858532858641  0.4293189740467466  1.0000
  C   C10       1.0  0.2561678157696255  0.8784021738263557  0.6254723410228661  1.0000
  C   C11       1.0  0.3121718042916344  0.9675527397565752  0.6900569044861675  1.0000
  C   C12       1.0  0.3935465323856621  0.941144905591181  0.6793929382173458  1.0000
  S   S1        1.0  0.5467487405021532  0.6809726065139341  0.4787479398633414  1.0000
  H   H1        1.0  0.6984410256963464  0.8433480230551182  0.6859027660918591  1.0000
  H   H2        1.0  0.5604086129294608  0.932252526620091  0.7520420712531324  1.0000
  H   H3        1.0  0.38145561265258837  0.6446283184907111  0.47994284029359596  1.0000
  H   H4        1.0  0.1932718887618906  0.900095456115664  0.6345478615528992  1.0000
  H   H5        1.0  0.29249750694732307  0.057690320347163475  0.7483265200335012  1.0000
  H   H6        1.0  0.43522006084835696  0.01338704970850246  0.7293988706107606  1.0000
  C   C13       1.0  0.9683726865017845  0.16713020101339035  0.42527802103918777  1.0000
  C   C14       1.0  0.9360894503535306  0.23143211358277505  0.5443149958102806  1.0000
  C   C15       1.0  0.9110905192235673  0.14773078651749616  0.6669515127667851  1.0000
  C   C16       1.0  0.9175675895567509  0.9972298724359259  0.6746780558269645  1.0000
  C   C17       1.0  0.9485478677611057  0.9314322634630126  0.554516809406703  1.0000
  C   C18       1.0  0.9728797765261435  0.014253790143273323  0.429020641803761  1.0000
  C   C19       1.0  0.8896700284818221  0.9141121889698653  0.8128489765502991  1.0000
  C   C20       1.0  0.8494162115130397  0.7667781783189463  0.7980733728739595  1.0000
  C   C21       1.0  0.9334219651266551  0.7770924104728939  0.8599481357564207  1.0000
  H   H7        1.0  0.98680405541278  0.46430276368986556  0.189270575065388  1.0000
  H   H8        1.0  0.9318827122611362  0.34783754964529695  0.5441321254815652  1.0000
  H   H9        1.0  0.8871917584463819  0.2013478067058303  0.7572673816022977  1.0000
  H   H10       1.0  0.9523475561987914  0.8151487851377828  0.5558953307143504  1.0000
  H   H11       1.0  0.9946529715224788  0.9348089109788512  0.07631002064682124  1.0000
  H   H12       1.0  0.8668203913057654  0.9744362740321069  0.9033635807937866  1.0000
  H   H13       1.0  0.8460533493697072  0.7264300446030687  0.6881520122527769  1.0000
  H   H14       1.0  0.8029510457666099  0.7374773623290586  0.880740850661867  1.0000
  H   H15       1.0  0.9810635602780859  0.7428812460280663  0.78769723992183  1.0000
  H   H16       1.0  0.9360520110061913  0.7538138273079822  0.9787974551434637  1.0000
  C   C22       1.0  0.9719120974229702  0.586907904341365  0.003870870460679128  1.0000
  C   C23       1.0  0.037532605759814874  0.6496287776660121  0.07340141450099201  1.0000
  C   C24       1.0  0.09868772426778061  0.7229957329754613  0.994548465394569  1.0000
  C   C25       1.0  0.09444157722301583  0.734009225069991  0.8431116909421341  1.0000
  C   C26       1.0  0.03049154362959783  0.6704611085431362  0.7722527324317867  1.0000
  C   C27       1.0  0.9693403203798154  0.5944760473884636  0.8504277516749079  1.0000
  O   O1        1.0  0.16212129825410113  0.7838807469091964  0.07068113846531987  1.0000
  C   C28       1.0  0.2281836540388813  0.8615984821851079  0.004631637098750032  1.0000
  H   H17       1.0  0.7817884162785923  0.4930957603727652  0.11249934524979575  1.0000
  H   H18       1.0  0.14066525895439239  0.7903525858195054  0.7789166236360039  1.0000
  H   H19       1.0  0.029887740696144412  0.6778772531542061  0.6551976235137958  1.0000
  H   H20       1.0  0.842519621886936  0.5256317321563808  0.5733643516440429  1.0000
  H   H21       1.0  0.2073001043099223  0.9586167100747233  0.9404418805804706  1.0000
  H   H22       1.0  0.2610483117552873  0.790928407358944  0.9342528375406194  1.0000
  H   H23       1.0  0.26918191088802623  0.897198994480472  0.09005735229203093  1.0000
  Zn  Zn1       1.0  0.8832597640564666  0.588288268380946  0.42623130110013463  1.0000
  Zn  Zn2       1.0  0.05798503590305025  0.5930948268314322  0.4280665983908322  1.0000
  C   C29       1.0  0.9697941040894691  0.5872993548730961  0.6903849876251513  1.0000
  C   C30       1.0  0.9714526131176251  0.5940856140241939  0.16391308142173444  1.0000
  C   C31       1.0  0.9720411639051417  0.8540779476371216  0.42256926601116485  1.0000
  C   C32       1.0  0.9692054842269336  0.3273052873571436  0.43172887160069395  1.0000
  O   O2        1.0  0.03760570258504247  0.5983122901901978  0.21832116737996876  1.0000
  O   O3        1.0  0.036253448557220576  0.5867196535166714  0.6373694301084358  1.0000
  O   O4        1.0  0.03806707936865882  0.8021467298591854  0.4211063373013961  1.0000
  O   O5        1.0  0.03579201253492448  0.382885221559524  0.4345841515309296  1.0000
  O   O6        1.0  0.9054527277994632  0.7984978720141147  0.41971374732616534  1.0000
  O   O7        1.0  0.9036391064379153  0.5830725279358847  0.6359767709343608  1.0000
  O   O8        1.0  0.9049913655159907  0.5946650988544819  0.21692677499766222  1.0000
  O   O9        1.0  0.9031776750794241  0.3792380208732271  0.43318986717083047  1.0000
