data_image0
_chemical_formula_structural       NC9NC3OH6C7H8C6NH7Zn2C4O8
_chemical_formula_sum              "N3 C29 O9 H21 Zn2"
_cell_length_a       15.78231758774541
_cell_length_b       9.274341958901593
_cell_length_c       9.274774538082513
_cell_angle_alpha    85.03522541298749
_cell_angle_beta     90.43038941912484
_cell_angle_gamma    89.0114341261544

_space_group_name_H-M_alt    "P 1"
_space_group_IT_number       1

loop_
  _space_group_symop_operation_xyz
  'x, y, z'

loop_
  _atom_site_type_symbol
  _atom_site_label
  _atom_site_symmetry_multiplicity
  _atom_site_fract_x
  _atom_site_fract_y
  _atom_site_fract_z
  _atom_site_occupancy
  N   N1        1.0  0.7820807858720221  0.5836991694905189  0.40979243732315823  1.0000
  C   C1        1.0  0.7342271145295461  0.4923125648765705  0.4366064255931579  1.0000
  C   C2        1.0  0.6748148057644647  0.37887957162345254  0.46988949213197007  1.0000
  C   C3        1.0  0.6955347838601964  0.2363902244401652  0.5116101375963467  1.0000
  C   C4        1.0  0.6193169588962433  0.16733358436349333  0.5319124457501133  1.0000
  C   C5        1.0  0.5567538832176114  0.27279160784124956  0.5010802687928286  1.0000
  C   C6        1.0  0.46380793169407986  0.2532931392134381  0.5068826487331126  1.0000
  C   C7        1.0  0.4091751868662415  0.37284463102523935  0.4717471084041256  1.0000
  C   C8        1.0  0.3210876511684782  0.3568562846208858  0.4765128786744205  1.0000
  C   C9        1.0  0.2657325491065116  0.4798862692501902  0.440345887150956  1.0000
  N   N2        1.0  0.22124005445542702  0.5787865163790107  0.411270861272085  1.0000
  C   C10       1.0  0.28695290243876564  0.22113849103299188  0.5164687416776061  1.0000
  C   C11       1.0  0.34065289726681947  0.10183412622394085  0.5515364823924404  1.0000
  C   C12       1.0  0.42855803331110714  0.11738325946779969  0.5469002219937591  1.0000
  O   O1        1.0  0.5922846380545125  0.39777402101791887  0.4644318231226523  1.0000
  H   H1        1.0  0.7583515746492068  0.18833819903813898  0.525623325681299  1.0000
  H   H2        1.0  0.6114274819421215  0.053787397084654305  0.5651754530121871  1.0000
  H   H3        1.0  0.43499629249784166  0.47845718506586676  0.44064911502929455  1.0000
  H   H4        1.0  0.21893734750361554  0.20759721311534854  0.5205027425700801  1.0000
  H   H5        1.0  0.3140961153393874  0.9969435902962763  0.5824223444955818  1.0000
  H   H6        1.0  0.4683461360740999  0.02288572054588833  0.5746855105076099  1.0000
  C   C13       1.0  0.004359402585734749  0.15763478286940716  0.41078797798157396  1.0000
  C   C14       1.0  0.013894697184805514  0.2420232915476681  0.2786730836245517  1.0000
  C   C15       1.0  0.015004610473079879  0.1781947755983202  0.1479308154788179  1.0000
  C   C16       1.0  0.005675876864887908  0.028684031724593103  0.14615640081646705  1.0000
  C   C17       1.0  0.9987763813056402  0.9426674562799882  0.27721224082579665  1.0000
  C   C18       1.0  0.9989696190421723  0.004839607050017635  0.41028785012974384  1.0000
  C   C19       1.0  0.008744127732524198  0.959881300626921  0.0056636410972366  1.0000
  H   H7        1.0  0.9350679820875509  0.23365697151109985  0.744933540551306  1.0000
  H   H8        1.0  0.01868816952806096  0.3585989976826114  0.2762085036247754  1.0000
  H   H9        1.0  0.022245167864237025  0.245862255938597  0.04775643088235571  1.0000
  H   H10       1.0  0.9951870548310269  0.8262197083384036  0.2753576141461595  1.0000
  H   H11       1.0  0.9556958815887474  0.7057538398360214  0.637154734978914  1.0000
  H   H12       1.0  0.07529710347545925  0.9297956218546359  0.9822463089075844  1.0000
  H   H13       1.0  0.9837054564403445  0.0357626757709264  0.9155119915985637  1.0000
  H   H14       1.0  0.9696700970051546  0.8610961338999015  0.011305025147376524  1.0000
  C   C20       1.0  0.00012027498364353087  0.5849436969573911  0.9867142847979111  1.0000
  C   C21       1.0  0.05962346137868607  0.6693983683822775  0.05360267323574996  1.0000
  C   C22       1.0  0.123003911379266  0.7419278058629593  0.9730094485868173  1.0000
  C   C23       1.0  0.12739616068547743  0.7303289738090648  0.8240533912349957  1.0000
  C   C24       1.0  0.06814462765060614  0.6490490074290443  0.7554614794166188  1.0000
  C   C25       1.0  0.0032087590159228757  0.5775306711650245  0.83436150660235  1.0000
  N   N3        1.0  0.18348118938033153  0.8261709077531165  0.04290647554781168  1.0000
  H   H15       1.0  0.8752494848993615  0.30437158490369365  0.11237467116908761  1.0000
  H   H16       1.0  0.058054585411459546  0.6762569516327996  0.16961362859401663  1.0000
  H   H17       1.0  0.17633582113748525  0.7855110805493402  0.7606556617082516  1.0000
  H   H18       1.0  0.0719488521305644  0.6449941738985059  0.6393035194331249  1.0000
  H   H19       1.0  0.9164734466414237  0.39297607545667407  0.5680933008874931  1.0000
  H   H20       1.0  0.1809628979687482  0.835244481570282  0.15426277404071187  1.0000
  H   H21       1.0  0.23120496849076339  0.880232318295585  0.9837939829156123  1.0000
  Zn  Zn1       1.0  0.9088127156337232  0.5822775579050943  0.41022740846705896  1.0000
  Zn  Zn2       1.0  0.09450821408930427  0.5801962513556269  0.41084769522635634  1.0000
  C   C26       1.0  0.002659643096047935  0.5731852473408297  0.674141419575941  1.0000
  C   C27       1.0  0.0006633033529961308  0.5892903580604492  0.1469338314727089  1.0000
  C   C28       1.0  0.9999631017185036  0.8447502205871555  0.40463106126022175  1.0000
  C   C29       1.0  0.003359792671778769  0.3177236517353199  0.4164442675463453  1.0000
  O   O2        1.0  0.07131606257461737  0.589952998986607  0.2009403742682383  1.0000
  O   O3        1.0  0.0729454759102166  0.5709418583021169  0.6206052452574449  1.0000
  O   O4        1.0  0.07076704013771933  0.7902340061296027  0.4029737200282104  1.0000
  O   O5        1.0  0.07349443452187976  0.37066086313488067  0.4185717910651219  1.0000
  O   O6        1.0  0.9298264318323503  0.7918129468377257  0.40250331240902737  1.0000
  O   O7        1.0  0.9320048562948116  0.5725225328009274  0.6201347596610789  1.0000
  O   O8        1.0  0.9303754370129184  0.5915336383915597  0.20046815348302038  1.0000
  O   O9        1.0  0.9325538094166175  0.37224149127595885  0.4180996784929895  1.0000
