data_image0
_chemical_formula_structural       NC9NC3OH6C7OCH10C7NC2NH7Zn2C4O8
_chemical_formula_sum              "N4 C33 O10 H23 Zn2"
_cell_length_a       15.78231758774541
_cell_length_b       10.30083208314754
_cell_length_c       9.273999113489248
_cell_angle_alpha    85.04366218099177
_cell_angle_beta     89.74395178918073
_cell_angle_gamma    89.62603918792362

_space_group_name_H-M_alt    "P 1"
_space_group_IT_number       1

loop_
  _space_group_symop_operation_xyz
  'x, y, z'

loop_
  _atom_site_type_symbol
  _atom_site_label
  _atom_site_symmetry_multiplicity
  _atom_site_fract_x
  _atom_site_fract_y
  _atom_site_fract_z
  _atom_site_occupancy
  N   N1        1.0  0.803259163101407  0.4255646774400246  0.41009033018355057  1.0000
  C   C1        1.0  0.7546406899529494  0.34329887537789694  0.4368832922082977  1.0000
  C   C2        1.0  0.6942790734818519  0.24118701546843702  0.4701402600880189  1.0000
  C   C3        1.0  0.7138071943314654  0.11291875331845437  0.5118281164089011  1.0000
  C   C4        1.0  0.6370111607923775  0.05075428549688277  0.5321145383748536  1.0000
  C   C5        1.0  0.5753298703538072  0.1456871215130806  0.5013066317470414  1.0000
  C   C6        1.0  0.4822201665636891  0.1281346948883586  0.5071045302777273  1.0000
  C   C7        1.0  0.42858833724229967  0.2357543953550161  0.47199649297250734  1.0000
  C   C8        1.0  0.3403664721437733  0.22136176420595868  0.4767585890472206  1.0000
  C   C9        1.0  0.2860414727740502  0.33211278723102255  0.44061990024075515  1.0000
  N   N2        1.0  0.24237705793953612  0.4211423320887233  0.4115676260133785  1.0000
  C   C10       1.0  0.3050949727613922  0.09918923813513225  0.5166832340251639  1.0000
  C   C11       1.0  0.35779608708837035  0.9917920005720819  0.5517235288535065  1.0000
  C   C12       1.0  0.4458318723192532  0.005789254091844277  0.5470908416339242  1.0000
  O   O1        1.0  0.6119064238658906  0.25819571776988276  0.46468694340871114  1.0000
  H   H1        1.0  0.7762224490915915  0.06966253493214622  0.525830243602591  1.0000
  H   H2        1.0  0.6281718039028571  0.948540525340301  0.565351417787376  1.0000
  H   H3        1.0  0.45529407367778785  0.33082632457002487  0.44092279245812716  1.0000
  H   H4        1.0  0.2369656645427205  0.0869994459013872  0.5207141229306811  1.0000
  H   H5        1.0  0.33036071881192763  0.8973700287301669  0.5825852642015863  1.0000
  H   H6        1.0  0.48482872632359525  0.9207230070925149  0.574854391594574  1.0000
  C   C13       1.0  0.02284528454363975  0.04201531311794971  0.41098051620089415  1.0000
  C   C14       1.0  0.9997651816187567  0.05280990924252227  0.26434393999590755  1.0000
  C   C15       1.0  0.9871532388461263  0.9411047224087615  0.19093907853679976  1.0000
  C   C16       1.0  0.9997053327921307  0.8175545622531437  0.2639623828832039  1.0000
  C   C17       1.0  0.022799005875393966  0.8046815403230193  0.4106899607159704  1.0000
  C   C18       1.0  0.03403450285494978  0.9174589105129224  0.48342014775651193  1.0000
  C   C19       1.0  0.9648910526738088  0.9538356453465638  0.032987061865102925  1.0000
  O   O2        1.0  0.04043263027784305  0.959636279321876  0.9507295208830189  1.0000
  C   C20       1.0  0.020388000102921303  0.9716285834909364  0.8021664435933984  1.0000
  H   H7        1.0  0.03264908852199545  0.36530333425641975  0.46671541514350096  1.0000
  H   H8        1.0  0.9915201164639933  0.14802974042551975  0.20661532332647314  1.0000
  H   H9        1.0  0.9914184114051934  0.7316294502222077  0.2059718246919615  1.0000
  H   H10       1.0  0.051842090491134286  0.9083707558184199  0.5965084096043998  1.0000
  H   H11       1.0  0.06729431268528652  0.573172068701026  0.6870433986913693  1.0000
  H   H12       1.0  0.9259637287872121  0.04368771903696267  0.008726866975844459  1.0000
  H   H13       1.0  0.9259988888682777  0.8686004888603018  0.008396027452990179  1.0000
  H   H14       1.0  0.08029748881588311  0.97605946677005  0.7389711154609403  1.0000
  H   H15       1.0  0.9844013173788795  0.06313469237489146  0.7719461513873456  1.0000
  H   H16       1.0  0.9844172763486324  0.8856553160250441  0.7715885355115337  1.0000
  C   C21       1.0  0.024285299898295424  0.42665718579904177  0.9869874944018809  1.0000
  C   C22       1.0  0.09080183900189452  0.3638059767213775  0.06571947553476654  1.0000
  C   C23       1.0  0.1517101995790353  0.2917663514010338  0.9972994163981577  1.0000
  C   C24       1.0  0.1477390813718189  0.28009533915063  0.8479941218031289  1.0000
  C   C25       1.0  0.08249762224896484  0.34512668905007304  0.7677069511866201  1.0000
  C   C26       1.0  0.021358962459302227  0.42003967421219635  0.8346829120805466  1.0000
  C   C27       1.0  0.21277025356545687  0.2017757129357338  0.7775469233242571  1.0000
  N   N3        1.0  0.2837272141750493  0.15568831473458844  0.8458417329496544  1.0000
  C   C28       1.0  0.32474886614903364  0.09029953499075183  0.7466814826300516  1.0000
  C   C29       1.0  0.2784655940910956  0.09723743379614258  0.6209812345676022  1.0000
  N   N4        1.0  0.20803907739450767  0.16728691729926282  0.6405509628405257  1.0000
  H   H17       1.0  0.9340811896311579  0.5914736340199378  0.2531987936057025  1.0000
  H   H18       1.0  0.09463983279310018  0.36763168576039007  0.18188206768861104  1.0000
  H   H19       1.0  0.20140277545164342  0.24342746077298294  0.06221253489209811  1.0000
  H   H20       1.0  0.08040192153921594  0.34163413891019667  0.651596242753767  1.0000
  H   H21       1.0  0.8891523152590384  0.49466269594943063  0.5484480900355018  1.0000
  H   H22       1.0  0.3846906506295611  0.04027158521643593  0.76527040323584  1.0000
  H   H23       1.0  0.1601031436976561  0.18745280341607629  0.5646767985297081  1.0000
  Zn  Zn1       1.0  0.9299790698989885  0.4242849503896664  0.4105249752973521  1.0000
  Zn  Zn2       1.0  0.11565708256202173  0.4224113684177205  0.4111447837566591  1.0000
  C   C30       1.0  0.02191052597934085  0.416117281083548  0.6744523262232069  1.0000
  C   C31       1.0  0.023727653491271376  0.4305806546456903  0.14721758063912893  1.0000
  C   C32       1.0  0.02282322513310952  0.6605663351042934  0.4049932364048714  1.0000
  C   C33       1.0  0.022814890807660415  0.1861300404870223  0.4166767477911908  1.0000
  O   O3        1.0  0.09400434074341052  0.43118072675414426  0.20122747753893577  1.0000
  O   O4        1.0  0.09255915553546969  0.4140942272102568  0.6209124344889625  1.0000
  O   O5        1.0  0.09329521657765144  0.6114899276811465  0.40332230930759017  1.0000
  O   O6        1.0  0.09326821671492652  0.23378503705687503  0.41881749428451465  1.0000
  O   O7        1.0  0.9523678723833169  0.6129112823913463  0.40285226455039336  1.0000
  O   O8        1.0  0.951631811508211  0.4155171426992134  0.6204423121789373  1.0000
  O   O9        1.0  0.9530770027657571  0.43260361053693885  0.20075561992887894  1.0000
  O   O10       1.0  0.9523408783608084  0.23520791070688363  0.4183457448911486  1.0000
