data_image0
_chemical_formula_structural       NC9NC3OH6C6SCNH4C6OCH7Zn2C4O8
_chemical_formula_sum              "N3 C30 O10 H17 S1 Zn2"
_cell_length_a       15.78231758774541
_cell_length_b       10.302215558581764
_cell_length_c       9.273891588657152
_cell_angle_alpha    86.08259887656699
_cell_angle_beta     89.76748324947235
_cell_angle_gamma    89.65080806534476

_space_group_name_H-M_alt    "P 1"
_space_group_IT_number       1

loop_
  _space_group_symop_operation_xyz
  'x, y, z'

loop_
  _atom_site_type_symbol
  _atom_site_label
  _atom_site_symmetry_multiplicity
  _atom_site_fract_x
  _atom_site_fract_y
  _atom_site_fract_z
  _atom_site_occupancy
  N   N1        1.0  0.8033718734033699  0.39996490779225397  0.41296226945146225  1.0000
  C   C1        1.0  0.7547351297937435  0.3181402922037109  0.43967761732260596  1.0000
  C   C2        1.0  0.694350835308977  0.21657605815961034  0.472838246642121  1.0000
  C   C3        1.0  0.7138504531261939  0.08899429449751017  0.5144052062757276  1.0000
  C   C4        1.0  0.6370406207283017  0.02716385242722707  0.5346329242516092  1.0000
  C   C5        1.0  0.5753804340055222  0.12158933284727835  0.5039144325923157  1.0000
  C   C6        1.0  0.48226684671104597  0.1041323354333854  0.5096956609095342  1.0000
  C   C7        1.0  0.42865890827571435  0.21117395890412988  0.4746892362099908  1.0000
  C   C8        1.0  0.3404338602208143  0.19685970437148548  0.4794376522821997  1.0000
  C   C9        1.0  0.28613344521485057  0.30701568475034935  0.4434035450216502  1.0000
  N   N2        1.0  0.2424887927809231  0.3955668692647411  0.41443534281112426  1.0000
  C   C10       1.0  0.3051352518418654  0.07534452832271143  0.5192468503435936  1.0000
  C   C11       1.0  0.35781252554304543  0.9685242498441993  0.5541857360594495  1.0000
  C   C12       1.0  0.4458514060364345  0.9824452573296106  0.5495663549538901  1.0000
  O   O1        1.0  0.611981978781704  0.2334949189301767  0.4674008599744905  1.0000
  H   H1        1.0  0.7762560855284532  0.04596868651955987  0.528366639655099  1.0000
  H   H2        1.0  0.6281785535436233  0.9254974148238749  0.5677734412382673  1.0000
  H   H3        1.0  0.45538573937833793  0.3057342695355291  0.4437053810062501  1.0000
  H   H4        1.0  0.2370032474024204  0.06322107937907084  0.5232661562072748  1.0000
  H   H5        1.0  0.3303562068978023  0.874610406405625  0.5849582396855768  1.0000
  H   H6        1.0  0.4848293782269193  0.8978361488183852  0.577249569281866  1.0000
  C   C13       1.0  0.02285034594362268  0.01649416307493423  0.41365884490250693  1.0000
  C   C14       1.0  0.10762017611098651  0.01194390123816547  0.4592981773986346  1.0000
  C   C15       1.0  0.14980379423729673  0.8926425239898559  0.48246607483892795  1.0000
  C   C16       1.0  0.10784001068278905  0.7767674874638892  0.4594209619849179  1.0000
  C   C17       1.0  0.023018333947018247  0.7790276326391496  0.4137512012601856  1.0000
  C   C18       1.0  0.9809796072407174  0.8994069933963188  0.3911767126157092  1.0000
  S   S1        1.0  0.25810810487352587  0.8883473009495013  0.5401332437977393  1.0000
  C   C19       1.0  0.22954855637787086  0.8773088182827884  0.7247418782321172  1.0000
  N   N3        1.0  0.21079946423750262  0.8700728005446488  0.8457685423481821  1.0000
  H   H7        1.0  0.14120256425633881  0.10072692035706378  0.47729617976256977  1.0000
  H   H8        1.0  0.14157308601323218  0.6852679281950442  0.47750320082106906  1.0000
  H   H9        1.0  0.9156015890788692  0.9020668425675533  0.35599805399749895  1.0000
  H   H10       1.0  0.8631663213777176  0.5760790037415294  0.327520776532377  1.0000
  C   C20       1.0  0.024321676716423154  0.3943084032495922  0.9904339497887443  1.0000
  C   C21       1.0  0.09372310361788716  0.4484529924415801  0.059247068678401016  1.0000
  C   C22       1.0  0.15832047660752102  0.5123408169261406  0.9796617934628434  1.0000
  C   C23       1.0  0.15374743647724354  0.5224070753715738  0.8282070466463232  1.0000
  C   C24       1.0  0.08612595940574641  0.46745850353615437  0.758057606222639  1.0000
  C   C25       1.0  0.021547011844351247  0.4012133743812738  0.8369761107654532  1.0000
  O   O2        1.0  0.22540757418583424  0.5649100093071344  0.055099863916131524  1.0000
  C   C26       1.0  0.29519678244139946  0.6325411101254419  0.9882658369180932  1.0000
  H   H11       1.0  0.8227637869404071  0.31658273109066276  0.10076543812000072  1.0000
  H   H12       1.0  0.20256806975967545  0.5714970508903376  0.7634546554573516  1.0000
  H   H13       1.0  0.08544375217372902  0.4741568960306399  0.6409749473751636  1.0000
  H   H14       1.0  0.88713340116943  0.3437241006207543  0.5610754724593343  1.0000
  H   H15       1.0  0.27247168213261674  0.7206297541233586  0.9238046057665863  1.0000
  H   H16       1.0  0.3305120365152854  0.5677500576122526  0.9179638780234445  1.0000
  H   H17       1.0  0.3385768416907702  0.6631407659024998  0.07325864228383305  1.0000
  Zn  Zn1       1.0  0.9300914992196164  0.398692328621085  0.4133956829794709  1.0000
  Zn  Zn2       1.0  0.11576909751769854  0.39682894777517985  0.4140137107659374  1.0000
  C   C27       1.0  0.022068467115295982  0.39473588396659665  0.676960901100996  1.0000
  C   C28       1.0  0.023794157112888126  0.4007870114376054  0.150448641063335  1.0000
  C   C29       1.0  0.023001067699988095  0.6348457921692445  0.4079899760118112  1.0000
  C   C30       1.0  0.022861492573829745  0.16067554459260822  0.4194196425987128  1.0000
  O   O3        1.0  0.09408079635411254  0.40224848391064016  0.20438557084510278  1.0000
  O   O4        1.0  0.09270682983928452  0.39185916568995033  0.623492625068637  1.0000
  O   O5        1.0  0.09345896180930424  0.5857509749253714  0.4062966970470427  1.0000
  O   O6        1.0  0.0933286013811771  0.20835668371739247  0.4215813905834087  1.0000
  O   O7        1.0  0.9525319319935117  0.5871645933161042  0.40582800294351556  1.0000
  O   O8        1.0  0.9517798006152322  0.393274343360265  0.6230238543004333  1.0000
  O   O9        1.0  0.9531537728564223  0.40366360220069075  0.20391506711501584  1.0000
  O   O10       1.0  0.9524015775237769  0.20977179360250206  0.421110994918126  1.0000
