data_image0
_chemical_formula_structural       NC8Cl2C7NH8C12H10C12H9Zn2C4O8
_chemical_formula_sum              "N2 C43 Cl2 H27 Zn2 O8"
_cell_length_a       18.42689100911083
_cell_length_b       13.024581838241813
_cell_length_c       13.024585202197208
_cell_angle_alpha    84.12653577963174
_cell_angle_beta     93.92807891465861
_cell_angle_gamma    93.7380331283742

_space_group_name_H-M_alt    "P 1"
_space_group_IT_number       1

loop_
  _space_group_symop_operation_xyz
  'x, y, z'

loop_
  _atom_site_type_symbol
  _atom_site_label
  _atom_site_symmetry_multiplicity
  _atom_site_fract_x
  _atom_site_fract_y
  _atom_site_fract_z
  _atom_site_occupancy
  N   N1        1.0  0.6777881679810367  0.1242946146632515  0.8355211998167582  1.0000
  C   C1        1.0  0.623440183865421  0.07457457637350773  0.832356984558198  1.0000
  C   C2        1.0  0.5558363366373131  0.012728900576965237  0.8284216254443062  1.0000
  C   C3        1.0  0.49753103191822506  0.04545378083887619  0.7613766979468595  1.0000
  C   C4        1.0  0.4319441722672585  0.9853645734812905  0.7574189916700969  1.0000
  C   C5        1.0  0.42291603246704995  0.8920774139400177  0.8217897821718605  1.0000
  C   C6        1.0  0.48294887360210487  0.8588668598152903  0.8871520299546447  1.0000
  C   C7        1.0  0.5485079123881547  0.9192029318998691  0.89088013471752  1.0000
  C   C8        1.0  0.3510377489295224  0.8269447914039966  0.8129206047885063  1.0000
  Cl  Cl1       1.0  0.35249859029993896  0.7641877095127421  0.6968498021072786  1.0000
  Cl  Cl2       1.0  0.34145777312767317  0.7263774989650755  0.9167486797782529  1.0000
  C   C9        1.0  0.28570238299538786  0.8934311052985279  0.8139177762676726  1.0000
  C   C10       1.0  0.22351297123167616  0.8832573756795976  0.7453032521773828  1.0000
  C   C11       1.0  0.16393923978441535  0.9433237704026736  0.750600746081541  1.0000
  C   C12       1.0  0.16473690251518439  0.013263742840704515  0.8253130403812002  1.0000
  C   C13       1.0  0.2251228481939867  0.022392909496259154  0.8954954572455784  1.0000
  C   C14       1.0  0.2847446131218032  0.9624893317304715  0.8904583695563476  1.0000
  C   C15       1.0  0.10326996443762049  0.07487128591602074  0.8306323038126326  1.0000
  N   N2        1.0  0.05385569237969589  0.12440002357031882  0.8349084191957252  1.0000
  H   H1        1.0  0.5028293459277425  0.11721822338713081  0.7117605046783149  1.0000
  H   H2        1.0  0.3879302456309948  0.01175952132470791  0.7038246657228102  1.0000
  H   H3        1.0  0.4801723975656819  0.7862906570442171  0.9353670666415154  1.0000
  H   H4        1.0  0.5936787455528252  0.8925210686795951  0.9421875849014805  1.0000
  H   H5        1.0  0.21997939761885676  0.8288980886383275  0.687572759623804  1.0000
  H   H6        1.0  0.11701528809341785  0.9347402999431313  0.6966500622912963  1.0000
  H   H7        1.0  0.226031338983236  0.07548564861569315  0.9544710537457823  1.0000
  H   H8        1.0  0.3304448694328009  0.970016302653763  0.9465954352645776  1.0000
  C   C16       1.0  0.8522552463429334  0.8214687340009658  0.8428349133420502  1.0000
  C   C17       1.0  0.8164735373377618  0.7586618355801122  0.7711175396256928  1.0000
  C   C18       1.0  0.8400133949449261  0.6603385702219076  0.7618994283325397  1.0000
  C   C19       1.0  0.8993491927158879  0.622782792697711  0.824688132639307  1.0000
  C   C20       1.0  0.9356260532727404  0.6856248523770109  0.8955472996896021  1.0000
  C   C21       1.0  0.9121422188209356  0.7839797286897016  0.9048321888777774  1.0000
  C   C22       1.0  0.9250607036025987  0.5193114456901766  0.8137916252785959  1.0000
  C   C23       1.0  0.9965481564253165  0.5135437246684181  0.7842621055501917  1.0000
  C   C24       1.0  0.0223942377173385  0.41905336451032976  0.7664236253067456  1.0000
  C   C25       1.0  0.9772535030611037  0.32908541870225466  0.7775790247900383  1.0000
  C   C26       1.0  0.9063575254087737  0.33298027946502634  0.8078675367106877  1.0000
  C   C27       1.0  0.8793956573251064  0.4272180080144349  0.8276038229064498  1.0000
  H   H9        1.0  0.8468943776139147  0.05867842508969632  0.9316021373404562  1.0000
  H   H10       1.0  0.7703780223743886  0.7855321246785685  0.7219421776612664  1.0000
  H   H11       1.0  0.8120515267821409  0.6134492522471239  0.7056816415137281  1.0000
  H   H12       1.0  0.9818711057715349  0.6581612429409712  0.9440824609642382  1.0000
  H   H13       1.0  0.9409519139113572  0.8305970215482399  0.9605396929728967  1.0000
  H   H14       1.0  0.03203601821154022  0.5829168283449416  0.7732066782656986  1.0000
  H   H15       1.0  0.07739280801658997  0.41572945625478985  0.743125676577  1.0000
  H   H16       1.0  0.9973839652346081  0.2559138722329045  0.7633763768200588  1.0000
  H   H17       1.0  0.8729592445221281  0.26152699651125866  0.8177169799965394  1.0000
  H   H18       1.0  0.7035774174628292  0.3422874962905728  0.8705779242683713  1.0000
  C   C28       1.0  0.8508962355342158  0.12310132958685503  0.5330558340735387  1.0000
  C   C29       1.0  0.8385468665559785  0.20551550579973327  0.4565798267292318  1.0000
  C   C30       1.0  0.8632691706477857  0.20394335881456493  0.35769903438821293  1.0000
  C   C31       1.0  0.9002690570277869  0.11968058442166858  0.3333043639564013  1.0000
  C   C32       1.0  0.9133340266617449  0.037853454542781086  0.4096913061803914  1.0000
  C   C33       1.0  0.8886443763176026  0.0393390554853159  0.5086174790762275  1.0000
  C   C34       1.0  0.9275158020335005  0.11873632489554795  0.22908376192610436  1.0000
  C   C35       1.0  0.00304619332493483  0.11539489836184687  0.22136278497999928  1.0000
  C   C36       1.0  0.03246180340464977  0.1208724014617328  0.12495340319077378  1.0000
  C   C37       1.0  0.9869727487411558  0.12997484247840485  0.03495040519436966  1.0000
  C   C38       1.0  0.9117719971139453  0.13235202901856621  0.040952397346378566  1.0000
  C   C39       1.0  0.8807546247604771  0.12558541450323973  0.13738284688431346  1.0000
  H   H19       1.0  0.8197601320994371  0.04255888087092496  0.7850680965819647  1.0000
  H   H20       1.0  0.8099200857244558  0.2713467182410416  0.4731585648297101  1.0000
  H   H21       1.0  0.853669802564757  0.2685086776719554  0.3000984445239521  1.0000
  H   H22       1.0  0.9422889208605185  0.972555258472685  0.392417310854794  1.0000
  H   H23       1.0  0.8991866570186284  0.9748835201804155  0.5658956402771635  1.0000
  H   H24       1.0  0.039480538146422495  0.11037235283737254  0.2903764469121146  1.0000
  H   H25       1.0  0.09074129388106389  0.11884275918243455  0.12002854018089051  1.0000
  H   H26       1.0  0.8776462974848891  0.13759685587392045  0.9697434379346719  1.0000
  H   H27       1.0  0.703719479079783  0.1614816280809947  0.05223556596629919  1.0000
  Zn  Zn1       1.0  0.7863133047739364  0.1243222976933047  0.8353503771924924  1.0000
  Zn  Zn2       1.0  0.9453305903108762  0.12436393938000571  0.8350878864190248  1.0000
  C   C40       1.0  0.8749250562007664  0.12100698980165213  0.02325544413396475  1.0000
  C   C41       1.0  0.856720638645248  0.12768054951345206  0.6471828848824513  1.0000
  C   C42       1.0  0.8740592054581418  0.3127016414161887  0.8263824549021339  1.0000
  C   C43       1.0  0.8575863823160689  0.9359846589366864  0.8440559602206079  1.0000
  O   O1        1.0  0.9190213910656685  0.129228680692004  0.6853854649575442  1.0000
  O   O2        1.0  0.9333146945968535  0.11948968439843456  0.9848533629967231  1.0000
  O   O3        1.0  0.9326147485384503  0.2742855440718024  0.8258770056602116  1.0000
  O   O4        1.0  0.9197212793809559  0.9744328280654796  0.844361745046899  1.0000
  O   O5        1.0  0.8119225614388439  0.27425340899472106  0.8260765186487531  1.0000
  O   O6        1.0  0.8126225603040389  0.11945878827047224  0.9850527899630732  1.0000
  O   O7        1.0  0.7983291940875883  0.1291977435371554  0.6855836557095905  1.0000
  O   O8        1.0  0.7990290858809791  0.9744018838506777  0.8445600131302368  1.0000
