data_image0
_chemical_formula_structural       NC7NC8NOH9C6H6C12H10Zn2C4O8
_chemical_formula_sum              "N3 C37 O9 H25 Zn2"
_cell_length_a       21.38721084674475
_cell_length_b       10.681118228259553
_cell_length_c       13.024585202197207
_cell_angle_alpha    85.80459198147678
_cell_angle_beta     93.68759365923059
_cell_angle_gamma    89.4841517151565

_space_group_name_H-M_alt    "P 1"
_space_group_IT_number       1

loop_
  _space_group_symop_operation_xyz
  'x, y, z'

loop_
  _atom_site_type_symbol
  _atom_site_label
  _atom_site_symmetry_multiplicity
  _atom_site_fract_x
  _atom_site_fract_y
  _atom_site_fract_z
  _atom_site_occupancy
  N   N1        1.0  0.5404642925842207  0.35554684126416136  0.8606352191284581  1.0000
  C   C1        1.0  0.4862449600561586  0.35674916315685135  0.8563251619853092  1.0000
  C   C2        1.0  0.4188035950144652  0.3582438279805324  0.8509635909924476  1.0000
  C   C3        1.0  0.38551049636910206  0.4690221717199192  0.8181245081359723  1.0000
  C   C4        1.0  0.3199888465081593  0.47050565711551684  0.8131174313006782  1.0000
  C   C5        1.0  0.28720587369749884  0.36097285786732364  0.8389864170874095  1.0000
  C   C6        1.0  0.32078872921901463  0.2508206748241797  0.8745431610694343  1.0000
  C   C7        1.0  0.38630339438595  0.24926981463723138  0.8795939576518095  1.0000
  N   N2        1.0  0.22011394857638278  0.3666186813863268  0.8373804656938545  1.0000
  C   C8        1.0  0.18113568134014327  0.28542428252308727  0.8004181536317276  1.0000
  C   C9        1.0  0.11308372198023439  0.30004672022377926  0.8131245177652617  1.0000
  C   C10       1.0  0.07046028466224741  0.21405505164860616  0.772381302134153  1.0000
  C   C11       1.0  0.0062419692515777005  0.22706369192245668  0.7840544235815115  1.0000
  C   C12       1.0  0.9836944155421045  0.32604851625083164  0.8365755546817046  1.0000
  C   C13       1.0  0.025616021203768404  0.4120986177773458  0.8774639330078453  1.0000
  C   C14       1.0  0.08985739242975452  0.3993455071783323  0.8659211228372807  1.0000
  C   C15       1.0  0.9175693732978822  0.33929779605774757  0.8485262378124386  1.0000
  N   N3        1.0  0.8644104368544698  0.3499492498745038  0.8581336614207373  1.0000
  O   O1        1.0  0.20179846194888013  0.1861786298108283  0.7462649858051705  1.0000
  H   H1        1.0  0.4101613304435628  0.554227403989215  0.7967990861480636  1.0000
  H   H2        1.0  0.2946445605916662  0.5568162017487632  0.7883818325768168  1.0000
  H   H3        1.0  0.2962904040053559  0.16678495735505616  0.8993143562830339  1.0000
  H   H4        1.0  0.41157286890644196  0.16349996914024123  0.9064913902882652  1.0000
  H   H5        1.0  0.08661524749931149  0.13656494068113223  0.7314287480013879  1.0000
  H   H6        1.0  0.9741897419669248  0.15987157434700314  0.7521052504070498  1.0000
  H   H7        1.0  0.008664361228065397  0.48908912667889876  0.9183003004055386  1.0000
  H   H8        1.0  0.12121683531974109  0.46727876010838176  0.8983823997374574  1.0000
  H   H9        1.0  0.2459390051641132  0.17906661046172642  0.7234719270616659  1.0000
  C   C16       1.0  0.702440562894297  0.9849980132498265  0.8593888478458098  1.0000
  C   C17       1.0  0.7333460552276154  0.9103571896993925  0.9408822167490472  1.0000
  C   C18       1.0  0.7333460436761853  0.7794749514891968  0.9408821697857144  1.0000
  C   C19       1.0  0.7024405542855652  0.7204884175766555  0.8593888924013353  1.0000
  C   C20       1.0  0.671560640669063  0.7951177352570009  0.7779628672033168  1.0000
  C   C21       1.0  0.6715606519652288  0.9260099933683843  0.7779629088856748  1.0000
  H   H10       1.0  0.6711865938009508  0.2916231285559774  0.7769774138575994  1.0000
  H   H11       1.0  0.757571273950483  0.9530328236337777  0.004760533222736511  1.0000
  H   H12       1.0  0.7575711963274933  0.7245287962888992  0.004760515642872723  1.0000
  H   H13       1.0  0.647332262817139  0.7524876573622934  0.714076210164321  1.0000
  H   H14       1.0  0.6473322460775387  0.9809120966438192  0.7140762019252446  1.0000
  H   H15       1.0  0.6711868121373511  0.42969377250924784  0.7769771337753422  1.0000
  C   C22       1.0  0.6896282463434513  0.35146158766545693  0.5572689245518738  1.0000
  C   C23       1.0  0.6758095020026912  0.4517717052657159  0.4829458497921081  1.0000
  C   C24       1.0  0.6971663450619415  0.44948536140992473  0.38390083054382695  1.0000
  C   C25       1.0  0.732290764082014  0.34655414202644286  0.35718234819809314  1.0000
  C   C26       1.0  0.746703280298487  0.24694631143878332  0.43142765186308285  1.0000
  C   C27       1.0  0.7253779059526175  0.24912701638255608  0.5305156917876153  1.0000
  C   C28       1.0  0.7557979649959577  0.3449921620124461  0.25280075176066563  1.0000
  C   C29       1.0  0.8209899462547402  0.3397828283499924  0.2446151200759763  1.0000
  C   C30       1.0  0.846117589447304  0.3459894019849643  0.14819675349297112  1.0000
  C   C31       1.0  0.8065813194124704  0.3577402106414817  0.05865347091027863  1.0000
  C   C32       1.0  0.7417105099999522  0.36177310411390207  0.0650939974071354  1.0000
  C   C33       1.0  0.7152528384721198  0.35402482099661814  0.16150878354437473  1.0000
  H   H16       1.0  0.6659157092006361  0.25408743336196693  0.8073944519252868  1.0000
  H   H17       1.0  0.6486091766272055  0.5321835844488343  0.5013386841315495  1.0000
  H   H18       1.0  0.686405377525731  0.5280696580950128  0.3279865222977732  1.0000
  H   H19       1.0  0.7741656754698175  0.16717697965816633  0.41235143248795963  1.0000
  H   H20       1.0  0.7369468754840646  0.17066173603211965  0.5861056141177301  1.0000
  H   H21       1.0  0.8525688873826923  0.3331264000475307  0.31331811332549325  1.0000
  H   H22       1.0  0.8963987558501967  0.34263635436504924  0.14292727954208062  1.0000
  H   H23       1.0  0.8262193721283656  0.36292325408855547  0.9839348779658077  1.0000
  H   H24       1.0  0.71211169158873  0.36866442506256497  0.9941897344379653  1.0000
  H   H25       1.0  0.5613666654694814  0.4003292376864236  0.07816258489279404  1.0000
  Zn  Zn1       1.0  0.6339484126169506  0.35392817532317533  0.8599192662756845  1.0000
  Zn  Zn2       1.0  0.770926691830392  0.35155772342739483  0.858858046643246  1.0000
  C   C34       1.0  0.7104078665916687  0.34855140835042486  0.04729454775283892  1.0000
  C   C35       1.0  0.6944687379364973  0.35693604504672705  0.6714828545564526  1.0000
  C   C36       1.0  0.702263469389657  0.5814477140139949  0.8552891442711126  1.0000
  C   C37       1.0  0.7026130907235412  0.12403823584147843  0.8634883132509592  1.0000
  O   O2        1.0  0.7480757942268802  0.35786828539857546  0.7094113655028801  1.0000
  O   O3        1.0  0.7607641422031031  0.345819103865854  0.008560299499955515  1.0000
  O   O4        1.0  0.7541867830797919  0.5338858327296927  0.8535145831474902  1.0000
  O   O5        1.0  0.7546531033374253  0.16980156597484108  0.8644570050773861  1.0000
  O   O6        1.0  0.6502219543657235  0.5356843335859882  0.8543203081982748  1.0000
  O   O7        1.0  0.6567993111598088  0.3476191090740879  0.009365969694689946  1.0000
  O   O8        1.0  0.6441109107690046  0.35966824171906564  0.71021579875775  1.0000
  O   O9        1.0  0.6506882231481221  0.17160151366548673  0.8652615154669463  1.0000
