data_image0
_chemical_formula_structural       NC9NC3OCH8C12NCOCH13C12ClH9Zn2C4O8
_chemical_formula_sum              "N3 C43 O10 H30 Cl1 Zn2"
_cell_length_a       17.728193572023454
_cell_length_b       10.299155265289647
_cell_length_c       10.299771906710086
_cell_angle_alpha    85.5278422735101
_cell_angle_beta     90.71328065090168
_cell_angle_gamma    88.43175330785004

_space_group_name_H-M_alt    "P 1"
_space_group_IT_number       1

loop_
  _space_group_symop_operation_xyz
  'x, y, z'

loop_
  _atom_site_type_symbol
  _atom_site_label
  _atom_site_symmetry_multiplicity
  _atom_site_fract_x
  _atom_site_fract_y
  _atom_site_fract_z
  _atom_site_occupancy
  N   N1        1.0  0.7101609391552559  0.3874579583694185  0.584781756428584  1.0000
  C   C1        1.0  0.6495552348843826  0.35002298358887374  0.5977976317195952  1.0000
  C   C2        1.0  0.5741094582370425  0.3034863085283407  0.6139970405959996  1.0000
  C   C3        1.0  0.5622304890513398  0.17543491009321732  0.6234534270323628  1.0000
  C   C4        1.0  0.48552856810542827  0.12597487111278416  0.6384181357465275  1.0000
  C   C5        1.0  0.42737010402262804  0.20864625006161264  0.6558649960745107  1.0000
  C   C6        1.0  0.34932990897446753  0.1635880716478357  0.6776121006673801  1.0000
  C   C7        1.0  0.28797286231414343  0.24907443926282966  0.6421261093027671  1.0000
  C   C8        1.0  0.21370562669359622  0.20976241896876702  0.6622853846727572  1.0000
  C   C9        1.0  0.15136926254126934  0.29778642955709156  0.6247243111524876  1.0000
  N   N2        1.0  0.1012642367955268  0.3685492055073362  0.5945287586740582  1.0000
  C   C10       1.0  0.20016409246302813  0.08484385073243383  0.7189847818332222  1.0000
  C   C11       1.0  0.26062256003095147  0.999674635026879  0.7558792605590248  1.0000
  C   C12       1.0  0.3347862448295086  0.038496949300985024  0.7358497078060724  1.0000
  O   O1        1.0  0.4407071010304127  0.34244332963896595  0.6545321032026294  1.0000
  C   C13       1.0  0.5084186285819189  0.39984312509947095  0.6059060937910334  1.0000
  H   H1        1.0  0.6091673944630384  0.10596907543873302  0.6213716527407058  1.0000
  H   H2        1.0  0.47789089995673606  0.02231767711953391  0.6364645297373261  1.0000
  H   H3        1.0  0.2978456478931643  0.3459212921830206  0.59767206001392  1.0000
  H   H4        1.0  0.1429555907311844  0.053548083521385514  0.7351338222519783  1.0000
  H   H5        1.0  0.2500130247387192  0.9034865631323955  0.8007942660683538  1.0000
  H   H6        1.0  0.38033009186671024  0.971251024960903  0.7682889788942915  1.0000
  H   H7        1.0  0.4989340165883076  0.4358069986739707  0.5023688990990431  1.0000
  H   H8        1.0  0.5212939107068674  0.4842188541784371  0.6624653328924963  1.0000
  C   C14       1.0  0.9058005135406856  0.9966018167208501  0.5897761561501402  1.0000
  C   C15       1.0  0.8928966309152111  0.006976094542198605  0.45452992033844003  1.0000
  C   C16       1.0  0.8862809912076864  0.8951019667929415  0.38583768452170064  1.0000
  C   C17       1.0  0.8927161596448603  0.7717251650341872  0.4542176390810111  1.0000
  C   C18       1.0  0.9056319427689358  0.7593950476157233  0.5895457617146898  1.0000
  C   C19       1.0  0.9120979627538112  0.872354602742882  0.6564919674470391  1.0000
  C   C20       1.0  0.8726311731073813  0.9070503243303546  0.24276352114543576  1.0000
  C   C21       1.0  0.9108956042023463  0.9993416172918672  0.1622998687300807  1.0000
  C   C22       1.0  0.8980564356036297  0.010454631489374538  0.027657702253694346  1.0000
  C   C23       1.0  0.8471653424895947  0.9285935371622357  0.9706390653218889  1.0000
  C   C24       1.0  0.8079790930847711  0.8381631224974007  0.05101158516810678  1.0000
  C   C25       1.0  0.8208457440382034  0.8267927741073249  0.185617101238309  1.0000
  N   N3        1.0  0.8318973024847874  0.9396239946028075  0.8326980517364618  1.0000
  C   C26       1.0  0.8869909559075378  0.9739335071805441  0.735853750242156  1.0000
  O   O2        1.0  0.9562251168303674  0.9731101577006379  0.7654374960186434  1.0000
  C   C27       1.0  0.8629027914277996  0.00159650037064396  0.5967140943509825  1.0000
  H   H9        1.0  0.9107873227436999  0.32008648224192116  0.6417925330263887  1.0000
  H   H10       1.0  0.8869210384444894  0.10232940689649948  0.40257156711659725  1.0000
  H   H11       1.0  0.8886516609207954  0.6851422081048352  0.4014881059819719  1.0000
  H   H12       1.0  0.922053537547185  0.8636377177004507  0.7608098333101492  1.0000
  H   H13       1.0  0.9304616820688507  0.52881748076438  0.8448509579785722  1.0000
  H   H14       1.0  0.9511969066273359  0.062426583511957304  0.2033964096135228  1.0000
  H   H15       1.0  0.9270019132589786  0.08453304336966451  0.9687988803771165  1.0000
  H   H16       1.0  0.7676052859587871  0.7757860351681579  0.009046204872093837  1.0000
  H   H17       1.0  0.7894754183823425  0.7564476344565014  0.24524843558713447  1.0000
  H   H18       1.0  0.7787414024422222  0.9133369369616803  0.8002999912131248  1.0000
  H   H19       1.0  0.8084271537052906  0.057677572721043006  0.5909028404167129  1.0000
  H   H20       1.0  0.8559152832738209  0.9083415507741777  0.5513160654703593  1.0000
  H   H21       1.0  0.9058586849306406  0.05963162432869697  0.5423895659425009  1.0000
  C   C28       1.0  0.9056802730690227  0.37810647844050504  0.2082907713671176  1.0000
  C   C29       1.0  0.9741149925373173  0.4436860939913338  0.20364817124790058  1.0000
  C   C30       1.0  0.008828246009057853  0.47680586997279883  0.08416634092959496  1.0000
  C   C31       1.0  0.974187837703061  0.44346739340839325  0.9683802742114427  1.0000
  C   C32       1.0  0.9057521473759861  0.37789038488264376  0.9710311934153353  1.0000
  C   C33       1.0  0.8718819493898823  0.34557631153443213  0.09146391089859218  1.0000
  C   C34       1.0  0.08122697432769743  0.5461822146898874  0.08030861749737372  1.0000
  C   C35       1.0  0.09313136892607088  0.648619718540737  0.16037685378189193  1.0000
  C   C36       1.0  0.1613087747619013  0.7138161253638162  0.15655938217030485  1.0000
  C   C37       1.0  0.21835534346568783  0.6775847016231191  0.07300294495866733  1.0000
  C   C38       1.0  0.20717120658475363  0.5759719082438817  0.9930811991156725  1.0000
  C   C39       1.0  0.13906148737736967  0.5105718917298059  0.9965247857728681  1.0000
  Cl  Cl1       1.0  0.30384893028103654  0.7595081826177699  0.06844847860438619  1.0000
  H   H22       1.0  0.8795832954249696  0.3531756341239773  0.5375082592791123  1.0000
  H   H23       1.0  0.0011097385596878782  0.46758242431238645  0.29329426191152463  1.0000
  H   H24       1.0  0.0001878569473983179  0.47035362039904655  0.8759103309330003  1.0000
  H   H25       1.0  0.8190872545796625  0.2949857990481799  0.09427724892421985  1.0000
  H   H26       1.0  0.8796893935500266  0.3528559087475347  0.6445918119487142  1.0000
  H   H27       1.0  0.049375947629277876  0.679390504469539  0.2246518298153466  1.0000
  H   H28       1.0  0.16963570017376228  0.7926935932825091  0.21837701433167991  1.0000
  H   H29       1.0  0.2512705438718792  0.5473318070413393  0.9284705822913768  1.0000
  H   H30       1.0  0.1319872606964254  0.431093539895427  0.9349580683942236  1.0000
  Zn  Zn1       1.0  0.8230249154949617  0.3819978279682759  0.58760203151825  1.0000
  Zn  Zn2       1.0  0.9884002893979534  0.3739987282655  0.5917191244910218  1.0000
  C   C40       1.0  0.905738028721521  0.37275716479516213  0.8268584160452914  1.0000
  C   C41       1.0  0.9056889817151408  0.38324094281255694  0.35246291189444756  1.0000
  C   C42       1.0  0.9056594131861265  0.6152125172927552  0.5844140375418786  1.0000
  C   C43       1.0  0.9057675411709001  0.14078403258861094  0.594907358703131  1.0000
  O   O3        1.0  0.9684509982038919  0.3819228330833211  0.4024108163222615  1.0000
  O   O4        1.0  0.9684920946807924  0.3680031632360441  0.7800349163693965  1.0000
  O   O5        1.0  0.9684277657464131  0.5637889671832088  0.5842593439234074  1.0000
  O   O6        1.0  0.968515270695628  0.18613704118431731  0.5981862899855643  1.0000
  O   O7        1.0  0.8429098777627873  0.5698595177805743  0.5811348646119141  1.0000
  O   O8        1.0  0.842974206342302  0.37407527429087883  0.7769103673408393  1.0000
  O   O9        1.0  0.8429331097784427  0.3879948993183155  0.3992847059026953  1.0000
  O   O10       1.0  0.8429973822783219  0.1922090981022668  0.5950602769368913  1.0000
