data_image0
_chemical_formula_structural       NC9NC3OCH8C12NCOCH13C13F3H9Zn2C4O8
_chemical_formula_sum              "N3 C44 O10 H30 F3 Zn2"
_cell_length_a       17.728193572023454
_cell_length_b       10.299155265289647
_cell_length_c       10.298532869026802
_cell_angle_alpha    85.56203192291568
_cell_angle_beta     90.71056303588647
_cell_angle_gamma    88.43175330785004

_space_group_name_H-M_alt    "P 1"
_space_group_IT_number       1

loop_
  _space_group_symop_operation_xyz
  'x, y, z'

loop_
  _atom_site_type_symbol
  _atom_site_label
  _atom_site_symmetry_multiplicity
  _atom_site_fract_x
  _atom_site_fract_y
  _atom_site_fract_z
  _atom_site_occupancy
  N   N1        1.0  0.7102139279080596  0.38660827670625464  0.5846786268533883  1.0000
  C   C1        1.0  0.6496077362953919  0.34918111651587314  0.5976954506353449  1.0000
  C   C2        1.0  0.5741613531080525  0.30265416740449225  0.6138960399926845  1.0000
  C   C3        1.0  0.5622820298553178  0.17460844648108204  0.623353115533446  1.0000
  C   C4        1.0  0.48557954859918223  0.1251573921492335  0.6383189147536579  1.0000
  C   C5        1.0  0.427420431269172  0.20783924600351747  0.6557670464666745  1.0000
  C   C6        1.0  0.34937942196359584  0.1627941243151494  0.6775157358113435  1.0000
  C   C7        1.0  0.28802370397355503  0.24825918652633083  0.6420271585167997  1.0000
  C   C8        1.0  0.2137557135472639  0.20895926964225614  0.6621879029305325  1.0000
  C   C9        1.0  0.1514207557606681  0.2969607289699796  0.6246240922652508  1.0000
  N   N2        1.0  0.1013168606000302  0.3677053758384612  0.5944263393809732  1.0000
  C   C10       1.0  0.2002120563718045  0.08407474310818273  0.718891431881108  1.0000
  C   C11       1.0  0.26066914253271023  0.9989276784469546  0.7557885991759248  1.0000
  C   C12       1.0  0.3348335772799234  0.037737967195122554  0.7357575868323573  1.0000
  O   O1        1.0  0.44075747818327415  0.34163552532646657  0.6544340564644207  1.0000
  C   C13       1.0  0.5084708263950245  0.3990061262590347  0.6058045035854356  1.0000
  H   H1        1.0  0.6092190132130318  0.10514136195192281  0.6212711895390397  1.0000
  H   H2        1.0  0.4779419535976152  0.021499025232153194  0.6363651663815673  1.0000
  H   H3        1.0  0.2978981540058429  0.34507934971813153  0.5975698697790268  1.0000
  H   H4        1.0  0.1430029499858626  0.05278867160561207  0.7350416491103566  1.0000
  H   H5        1.0  0.250057925528039  0.9027665730339699  0.8007068777249131  1.0000
  H   H6        1.0  0.3803762097224682  0.9705115190410888  0.7681992218303563  1.0000
  H   H7        1.0  0.49899009105212794  0.43490783722632864  0.5022597639462589  1.0000
  H   H8        1.0  0.5213439908228944  0.48341581289088337  0.6623678642634312  1.0000
  C   C14       1.0  0.9058533152926407  0.9957551336410368  0.5896733905261049  1.0000
  C   C15       1.0  0.8929544965711896  0.006048211091273621  0.4544172990706486  1.0000
  C   C16       1.0  0.8863414288457033  0.894132841269679  0.38572005752342764  1.0000
  C   C17       1.0  0.8927740369933066  0.7707970940929875  0.4541049950567053  1.0000
  C   C18       1.0  0.9056847531473443  0.7585482262095928  0.5894429793013853  1.0000
  C   C19       1.0  0.9121482665252262  0.8715479751115898  0.6563940635277686  1.0000
  C   C20       1.0  0.8726969677435223  0.9059952986332882  0.2426354680678231  1.0000
  C   C21       1.0  0.910964411567165  0.9982382820917833  0.1621659521170522  1.0000
  C   C22       1.0  0.8981302842548426  0.00927045859484776  0.02751397401656153  1.0000
  C   C23       1.0  0.8472413260387088  0.9273751308973579  0.970491182031052  1.0000
  C   C24       1.0  0.8080520673174029  0.836992971020536  0.05086955877168676  1.0000
  C   C25       1.0  0.8209136783567091  0.8257034383203972  0.18548488379521014  1.0000
  N   N3        1.0  0.8319784508360819  0.9383227700515107  0.8325401164284205  1.0000
  C   C26       1.0  0.8870757303135244  0.9725741383624279  0.7356887577104528  1.0000
  O   O2        1.0  0.9563087835585811  0.9717685506421856  0.765274659309302  1.0000
  C   C27       1.0  0.86299277551566  0.00015359361428623846  0.5965389624547894  1.0000
  H   H9        1.0  0.91083817689291  0.31927102922984885  0.6416935579320998  1.0000
  H   H10       1.0  0.8869808495306848  0.10137032821460523  0.4024551595473496  1.0000
  H   H11       1.0  0.888711512574059  0.6841824789246428  0.4013716194589043  1.0000
  H   H12       1.0  0.9220999354379115  0.8628937213828568  0.7607195312270196  1.0000
  H   H13       1.0  0.930504933282801  0.5281239418252903  0.8447667801278895  1.0000
  H   H14       1.0  0.9512641752510761  0.06134792222868146  0.20326548778156298  1.0000
  H   H15       1.0  0.9270779657084939  0.08331353227773186  0.9686508629885943  1.0000
  H   H16       1.0  0.767679831463675  0.7745906881327372  0.008901120380667923  1.0000
  H   H17       1.0  0.7895411199780511  0.755394100675078  0.24512056358984102  1.0000
  H   H18       1.0  0.778823763845163  0.9120162609667112  0.8001396949983932  1.0000
  H   H19       1.0  0.8085173553787419  0.05623117695093783  0.5907272850436809  1.0000
  H   H20       1.0  0.856006967159533  0.906871387534335  0.5511376253356991  1.0000
  H   H21       1.0  0.9059507030433025  0.058156101715485915  0.5422104753172827  1.0000
  C   C28       1.0  0.9057473584375471  0.37703075567887057  0.2081602061963661  1.0000
  C   C29       1.0  0.9814283639075729  0.3324785179580414  0.21227169148731775  1.0000
  C   C30       1.0  0.01977647007355365  0.31002224194037864  0.09718412064670479  1.0000
  C   C31       1.0  0.9814728592652887  0.33273200317400203  0.9769720481477675  1.0000
  C   C32       1.0  0.9057906804456278  0.37727259190214  0.970956187859823  1.0000
  C   C33       1.0  0.8684112503574576  0.3991323579552122  0.08705976195146282  1.0000
  C   C34       1.0  0.09978931230159627  0.2629320914924669  0.10246537407772394  1.0000
  C   C35       1.0  0.151885662895753  0.3150186718592143  0.012205950634424308  1.0000
  C   C36       1.0  0.22718845181538574  0.2708026564779369  0.017197773486326673  1.0000
  C   C37       1.0  0.2517655321651533  0.17221147314256702  0.11131071479593292  1.0000
  C   C38       1.0  0.20010561468558064  0.12192297928478668  0.2031578032191859  1.0000
  C   C39       1.0  0.12480773089108266  0.16617181501815126  0.1982770137989163  1.0000
  C   C40       1.0  0.3335948664484392  0.1279669356872033  0.1196456756447235  1.0000
  F   F1        1.0  0.37227916861518495  0.20541769506615148  0.20007099076178725  1.0000
  F   F2        1.0  0.3657312620566755  0.13758770916839438  0.9975861095348337  1.0000
  F   F3        1.0  0.34061203787195726  0.9994971481865356  0.16974465488612167  1.0000
  H   H22       1.0  0.7628820622578361  0.46202955949375113  0.40765629438060147  1.0000
  H   H23       1.0  0.010984657094676113  0.3168894005329277  0.30509154598852883  1.0000
  H   H24       1.0  0.010459213580152456  0.3139482138647356  0.8880689707074417  1.0000
  H   H25       1.0  0.8100821578951547  0.433464410788923  0.08315783024845236  1.0000
  H   H26       1.0  0.762640690253253  0.46070150246209285  0.7523164043426318  1.0000
  H   H27       1.0  0.13467193699526736  0.391620534422608  0.9390251662598335  1.0000
  H   H28       1.0  0.26630327609496907  0.3141417976653414  0.9476739623456095  1.0000
  H   H29       1.0  0.21792203586424275  0.048183737440489434  0.2787956295419911  1.0000
  H   H30       1.0  0.08596450589328342  0.12377364442936332  0.2688269882867862  1.0000
  Zn  Zn1       1.0  0.8230777986507241  0.3811498395676456  0.5874991074617251  1.0000
  Zn  Zn2       1.0  0.9884530184010805  0.37315321172277605  0.5916165004546892  1.0000
  C   C41       1.0  0.9057819536141504  0.37205282332930745  0.8267729270447448  1.0000
  C   C42       1.0  0.905750668974963  0.3822517794382824  0.3523428528146644  1.0000
  C   C43       1.0  0.9057124157071004  0.6143626148551649  0.5843108811703266  1.0000
  C   C44       1.0  0.9058201507998208  0.13994043022708147  0.5948049669993314  1.0000
  O   O3        1.0  0.968510815308936  0.38096365788839526  0.4022943970388067  1.0000
  O   O4        1.0  0.9685377727439035  0.3672707094495209  0.7799460152536851  1.0000
  O   O5        1.0  0.9684807740594416  0.5629389718692503  0.584156176279045  1.0000
  O   O6        1.0  0.968567757554453  0.18529540745751816  0.5980841372235624  1.0000
  O   O7        1.0  0.8429630030629043  0.5690076465631719  0.5810314692809557  1.0000
  O   O8        1.0  0.8430200013951118  0.3733409445590533  0.7768212385334521  1.0000
  O   O9        1.0  0.8429930439316469  0.3870338472406459  0.3991680588137825  1.0000
  O   O10       1.0  0.843049986181662  0.1913655875511846  0.594957896376527  1.0000
