data_image0
_chemical_formula_structural       NC5NC3F3CH3C6NH7C9H8Zn2C4O8
_chemical_formula_sum              "N3 C28 F3 H18 Zn2 O8"
_cell_length_a       13.85151926108384
_cell_length_b       9.274771166103582
_cell_length_c       9.275155815604963
_cell_angle_alpha    85.94411296578332
_cell_angle_beta     90.35750761735815
_cell_angle_gamma    90.59705350001695

_space_group_name_H-M_alt    "P 1"
_space_group_IT_number       1

loop_
  _space_group_symop_operation_xyz
  'x, y, z'

loop_
  _atom_site_type_symbol
  _atom_site_label
  _atom_site_symmetry_multiplicity
  _atom_site_fract_x
  _atom_site_fract_y
  _atom_site_fract_z
  _atom_site_occupancy
  N   N1        1.0  0.9133469328602123  0.56493988998423  0.40738425691766667  1.0000
  C   C1        1.0  0.8412188061945141  0.5563959832411511  0.46985237738429175  1.0000
  C   C2        1.0  0.7514857568528257  0.5457661947674926  0.5475716556573575  1.0000
  C   C3        1.0  0.6637039663038774  0.5543391659725381  0.4720483494560442  1.0000
  C   C4        1.0  0.5764337671723172  0.5457661814462026  0.5475716356277568  1.0000
  C   C5        1.0  0.48619955458640257  0.5563960002045774  0.46985247139946146  1.0000
  N   N2        1.0  0.41366874742964826  0.564939852995347  0.4073843624143485  1.0000
  C   C6        1.0  0.5769298848458867  0.527623550678957  0.6987960565760187  1.0000
  C   C7        1.0  0.6647038607472391  0.5158709425927862  0.7755869999291574  1.0000
  C   C8        1.0  0.6652860649510677  0.5016944360084226  0.9385971416997032  1.0000
  F   F1        1.0  0.7459175742447333  0.42730769060164286  0.9903232998402499  1.0000
  F   F2        1.0  0.5840487597914443  0.42730766085065375  0.9903233991689424  1.0000
  F   F3        1.0  0.6664519886718888  0.6379839725989418  0.9900557372444921  1.0000
  C   C9        1.0  0.7520002111059  0.5276234555735357  0.6987960763623672  1.0000
  H   H1        1.0  0.6633138868590137  0.5685460697155345  0.3549647462372132  1.0000
  H   H2        1.0  0.5090148272249363  0.522940943897342  0.7564436747639199  1.0000
  H   H3        1.0  0.8203315800062896  0.5229408626270424  0.7564436338808267  1.0000
  C   C10       1.0  0.16055186312361203  0.14135010247849022  0.40816984591433736  1.0000
  C   C11       1.0  0.13779013494501438  0.22354853052909607  0.279287166115902  1.0000
  C   C12       1.0  0.12403863250415209  0.15738177682493124  0.14958678258576485  1.0000
  C   C13       1.0  0.1330954876521098  0.0076310288646861445  0.14782964687504507  1.0000
  C   C14       1.0  0.15406449780278764  0.924097920143495  0.2749418553122982  1.0000
  C   C15       1.0  0.1664730332320956  0.9885187137873255  0.40661123798943405  1.0000
  N   N3        1.0  0.10186404273061903  0.24266749974834  0.01928760754774927  1.0000
  H   H4        1.0  0.2705381218352405  0.22372772047604128  0.7235854202893004  1.0000
  H   H5        1.0  0.13292005762124126  0.3401364692758091  0.2787335514376028  1.0000
  H   H6        1.0  0.12297201944477923  0.955284104226022  0.04803828730338422  1.0000
  H   H7        1.0  0.15830157658690092  0.8078983455902505  0.2708142638478326  1.0000
  H   H8        1.0  0.2366494125782523  0.6933011291236225  0.6212055065039686  1.0000
  H   H9        1.0  0.09521226974858024  0.35474099776898194  0.019240796197129477  1.0000
  H   H10       1.0  0.09184150844364551  0.1943582017854326  0.9218664114842988  1.0000
  C   C16       1.0  0.16171809596992315  0.561288318263042  0.9841659998988206  1.0000
  C   C17       1.0  0.08668587535739715  0.6315741593911173  0.0518515483523241  1.0000
  C   C18       1.0  0.018187030793478384  0.7114466293646855  0.9704198195542793  1.0000
  C   C19       1.0  0.02345143272462913  0.7227058003195586  0.8198173077583921  1.0000
  C   C20       1.0  0.09653549069389913  0.6516449522635226  0.7504248201744435  1.0000
  C   C21       1.0  0.16530676560513546  0.5685804159139188  0.8306150096523246  1.0000
  C   C22       1.0  0.9530246672074967  0.8059482643128963  0.7360667601461199  1.0000
  C   C23       1.0  0.8940549636640779  0.8756524600460265  0.6659104640885715  1.0000
  C   C24       1.0  0.8225058374709615  0.9602267159333877  0.5807761843254196  1.0000
  H   H11       1.0  0.38498647058704916  0.4449083828087719  0.09733799244971578  1.0000
  H   H12       1.0  0.08232062477104575  0.6275756333975033  0.1686504425540638  1.0000
  H   H13       1.0  0.9615952527344702  0.7656629796161187  0.02513309453938661  1.0000
  H   H14       1.0  0.09836665437132086  0.6584278511005197  0.6332660451356382  1.0000
  H   H15       1.0  0.31423905236114247  0.4850464529917591  0.5571863274387563  1.0000
  H   H16       1.0  0.8421527761279028  0.964371171654586  0.46476957359321736  1.0000
  H   H17       1.0  0.7502446882052423  0.90886089338386  0.5958969612036956  1.0000
  H   H18       1.0  0.820841065239998  0.07160808167216981  0.6170759887466026  1.0000
  Zn  Zn1       1.0  0.05772900948147133  0.5649361000436093  0.4073926015249103  1.0000
  Zn  Zn2       1.0  0.2692866209402722  0.5649319786622549  0.4073877904709595  1.0000
  C   C25       1.0  0.16458612741180745  0.5614556382942864  0.6706286297865196  1.0000
  C   C26       1.0  0.1624318265330225  0.568414261614493  0.14415190026430413  1.0000
  C   C27       1.0  0.16532447570949982  0.8283363049953781  0.4011626714023802  1.0000
  C   C28       1.0  0.16169339425844087  0.30153186253487124  0.4136179386762102  1.0000
  O   O1        1.0  0.24295632805297682  0.570797936267631  0.19784281572428136  1.0000
  O   O2        1.0  0.244628948514506  0.5590677438474561  0.6169336499739786  1.0000
  O   O3        1.0  0.24522409817578683  0.7745772703066522  0.39933797932757786  1.0000
  O   O4        1.0  0.2423611058153864  0.3552884191976242  0.4154383782917064  1.0000
  O   O5        1.0  0.08465445241210581  0.7745796595111508  0.39934201369822153  1.0000
  O   O6        1.0  0.08405931453346316  0.5590718654333962  0.6169376043109145  1.0000
  O   O7        1.0  0.08238668643840752  0.5708019926596244  0.19784503738775538  1.0000
  O   O8        1.0  0.08179146458287523  0.3552924662033392  0.41544070802821526  1.0000
