data_image0
_chemical_formula_structural       NC5NC3BrH3C6NCOH7C6ClH5Zn2C4O8
_chemical_formula_sum              "N3 C25 Br1 H15 O9 Cl1 Zn2"
_cell_length_a       13.839083392302014
_cell_length_b       9.273730183620392
_cell_length_c       10.302974078461048
_cell_angle_alpha    85.70652844495697
_cell_angle_beta     90.00087565585007
_cell_angle_gamma    90.62023199469779

_space_group_name_H-M_alt    "P 1"
_space_group_IT_number       1

loop_
  _space_group_symop_operation_xyz
  'x, y, z'

loop_
  _atom_site_type_symbol
  _atom_site_label
  _atom_site_symmetry_multiplicity
  _atom_site_fract_x
  _atom_site_fract_y
  _atom_site_fract_z
  _atom_site_occupancy
  N   N1        1.0  0.9208751822788747  0.5789273618201523  0.5715813394074019  1.0000
  C   C1        1.0  0.8484301248862174  0.5152771521655964  0.5736542761470615  1.0000
  C   C2        1.0  0.7581701884646707  0.4360742843460936  0.5762335841262476  1.0000
  C   C3        1.0  0.6711434726961605  0.5122846399340188  0.5737519047346795  1.0000
  C   C4        1.0  0.5825772579595178  0.43754720730309615  0.5761855665055592  1.0000
  C   C5        1.0  0.49336446876884993  0.5161092784884989  0.573627162044162  1.0000
  N   N2        1.0  0.42164899094952046  0.5792670247397083  0.5715702279496857  1.0000
  C   C6        1.0  0.580969760338627  0.2862878738802998  0.581111095911395  1.0000
  C   C7        1.0  0.6675505871370834  0.20995623412674974  0.5835966424876061  1.0000
  C   C8        1.0  0.7563078647898488  0.2839794452652215  0.5811862564200052  1.0000
  Br  Br1       1.0  0.8729453504389397  0.1738741060400677  0.5847717487450907  1.0000
  H   H1        1.0  0.6723340568413904  0.6294978217103495  0.5699348567022802  1.0000
  H   H2        1.0  0.5128660898119928  0.2274272640726582  0.5830275607687235  1.0000
  H   H3        1.0  0.6655985385972982  0.09299229266959208  0.5874052345154355  1.0000
  C   C9        1.0  0.16831493186469237  0.15559456350868994  0.5706099442073727  1.0000
  C   C10       1.0  0.1824853370143804  0.23909145073947569  0.4522640081443852  1.0000
  C   C11       1.0  0.20408584579393363  0.17429866179209297  0.33738481310304125  1.0000
  C   C12       1.0  0.21457947665228683  0.023850415094362143  0.34174489742182446  1.0000
  C   C13       1.0  0.1993255084937362  0.9391829513200867  0.45775581589201875  1.0000
  C   C14       1.0  0.1742184333047634  0.002588745931314299  0.5725528889453861  1.0000
  N   N3        1.0  0.22041935202863394  0.2640868108437846  0.2192993138971029  1.0000
  C   C15       1.0  0.19628262320533607  0.22311565366092775  0.0917605468523941  1.0000
  O   O1        1.0  0.14661013370955578  0.1111804904442215  0.07599597034605687  1.0000
  H   H4        1.0  0.18346166102381936  0.23223430924335317  0.8896470390809619  1.0000
  H   H5        1.0  0.17818631652749684  0.3559151410382999  0.4494007820604387  1.0000
  H   H6        1.0  0.23554811227393244  0.9713706287700941  0.25594757391651424  1.0000
  H   H7        1.0  0.20554342365411649  0.822895660823031  0.4570436895766148  1.0000
  H   H8        1.0  0.18027592881454546  0.7037749186991141  0.7872252889661323  1.0000
  H   H9        1.0  0.24550896490742447  0.36987726067880455  0.2264297020399404  1.0000
  H   H10       1.0  0.21872528647752465  0.29174489603228126  0.0073624333681607855  1.0000
  C   C16       1.0  0.1712666785994197  0.5790916529997838  0.1903389032958689  1.0000
  C   C17       1.0  0.15341442724583  0.42929260460805185  0.19922934913688375  1.0000
  C   C18       1.0  0.1445566765596218  0.3549663969097796  0.0866837546701027  1.0000
  C   C19       1.0  0.15341447103026318  0.42929268608454785  0.9641214503516511  1.0000
  C   C20       1.0  0.17126667561581788  0.579091578554991  0.9528239221985798  1.0000
  C   C21       1.0  0.18010579708320495  0.6532609265316567  0.06658363983674653  1.0000
  Cl  Cl1       1.0  0.12225497667959395  0.16783179839682316  0.09929357634499314  1.0000
  H   H11       1.0  0.17799187072294667  0.6355183693778523  0.5142929648726426  1.0000
  H   H12       1.0  0.14631418313924427  0.36971402495881905  0.2932905167731364  1.0000
  H   H13       1.0  0.14631425051873403  0.3697140044260798  0.8780895506505306  1.0000
  H   H14       1.0  0.19387394580882544  0.7687904487909458  0.05879873613150899  1.0000
  H   H15       1.0  0.17799168676437715  0.635518356490973  0.6212653343660612  1.0000
  Zn  Zn1       1.0  0.06538766215326941  0.5790215145736712  0.5715856269762526  1.0000
  Zn  Zn2       1.0  0.2771364208274585  0.5791610514032042  0.5715765676370436  1.0000
  C   C22       1.0  0.17122446334344518  0.5733463515027422  0.8086847212102694  1.0000
  C   C23       1.0  0.1713019446099755  0.5848380356523961  0.3344776049023686  1.0000
  C   C24       1.0  0.1730975517045723  0.8424887775054428  0.5670121423193113  1.0000
  C   C25       1.0  0.16942877191713013  0.31569387691702433  0.5761502490375205  1.0000
  O   O2        1.0  0.25167128673164063  0.5868132359706554  0.3828484174803917  1.0000
  O   O3        1.0  0.251567521939734  0.5714759684470578  0.7603066565856409  1.0000
  O   O4        1.0  0.25307898122153305  0.7888118805008686  0.5651543427437229  1.0000
  O   O5        1.0  0.250159755266242  0.3694773341858428  0.5780006340066781  1.0000
  O   O6        1.0  0.0923642554550379  0.7887052317449861  0.5651615606028847  1.0000
  O   O7        1.0  0.09085280824550868  0.5713710523777987  0.7603138091968755  1.0000
  O   O8        1.0  0.09095657275143809  0.586708269645669  0.38285400909325107  1.0000
  O   O9        1.0  0.08944504121019081  0.36937235754581144  0.5780063229314367  1.0000
