data_image0
_chemical_formula_structural       NC9NC3OH6C6NCH9C6FH3Zn2C4O8
_chemical_formula_sum              "N3 C29 O9 H18 F1 Zn2"
_cell_length_a       15.78231758774541
_cell_length_b       9.273386996610926
_cell_length_c       9.275646106892307
_cell_angle_alpha    84.85815515660879
_cell_angle_beta     90.10253560025424
_cell_angle_gamma    89.03191128213776

_space_group_name_H-M_alt    "P 1"
_space_group_IT_number       1

loop_
  _space_group_symop_operation_xyz
  'x, y, z'

loop_
  _atom_site_type_symbol
  _atom_site_label
  _atom_site_symmetry_multiplicity
  _atom_site_fract_x
  _atom_site_fract_y
  _atom_site_fract_z
  _atom_site_occupancy
  N   N1        1.0  0.7877270475005868  0.5870447589317513  0.40798851681671566  1.0000
  C   C1        1.0  0.7397647192900584  0.49558918914082434  0.43490342563725487  1.0000
  C   C2        1.0  0.6802175396377075  0.38207059259498743  0.4683117591329824  1.0000
  C   C3        1.0  0.7007683933929745  0.23947388264136887  0.5101897549279748  1.0000
  C   C4        1.0  0.6244683269881521  0.17036505192864126  0.5305683260499743  1.0000
  C   C5        1.0  0.5620302692065443  0.2759024484159458  0.49961969451855115  1.0000
  C   C6        1.0  0.4690608626176373  0.2563891099118254  0.5054436110854044  1.0000
  C   C7        1.0  0.41457045479862825  0.3760309317014159  0.47017604418941367  1.0000
  C   C8        1.0  0.3264636598876541  0.36003037713719643  0.4749594744418988  1.0000
  C   C9        1.0  0.27125506686206186  0.48315333746701733  0.4386566144347797  1.0000
  N   N2        1.0  0.2268803513607859  0.5821283277998162  0.40947236774090645  1.0000
  C   C10       1.0  0.2921670955331013  0.22420990665000873  0.5150652206291724  1.0000
  C   C11       1.0  0.3457250314313529  0.1048153893582355  0.5502647152325708  1.0000
  C   C12       1.0  0.4336489023360012  0.12037639808723498  0.5456112799171908  1.0000
  O   O1        1.0  0.5977095488337305  0.40097913604461954  0.46283322871532717  1.0000
  H   H1        1.0  0.76352833843523  0.19138575872644273  0.5242560038891151  1.0000
  H   H2        1.0  0.6164440226787465  0.05673327771643177  0.5639567226687703  1.0000
  H   H3        1.0  0.44051749923248346  0.4817233966100512  0.4389614148144592  1.0000
  H   H4        1.0  0.22413523693648843  0.2106582935662435  0.5191141784710784  1.0000
  H   H5        1.0  0.31904317010984085  0.999845487974512  0.5812664159790986  1.0000
  H   H6        1.0  0.47332445375098275  0.025807434517626238  0.5735009273247558  1.0000
  C   C13       1.0  0.009913740529882809  0.16089578960606876  0.40944851086466194  1.0000
  C   C14       1.0  0.024753686396995937  0.245595609382975  0.27899481901769363  1.0000
  C   C15       1.0  0.03161504662599457  0.18240634840589487  0.14850610154503818  1.0000
  C   C16       1.0  0.023739848071155475  0.03222948462136643  0.14513453912444585  1.0000
  C   C17       1.0  0.010393079183726341  0.9465548638294321  0.27513993511287627  1.0000
  C   C18       1.0  0.0047017977068191065  0.008265973925727577  0.4080249107457312  1.0000
  N   N3        1.0  0.029884064135973887  0.9640405346259365  0.011948851239398154  1.0000
  C   C19       1.0  0.04395842819427284  0.043280033331369865  0.8711478246833272  1.0000
  H   H7        1.0  0.027296624988499833  0.4203213495855757  0.6464709729107723  1.0000
  H   H8        1.0  0.029075224881063056  0.36221198768306606  0.2772386421849313  1.0000
  H   H9        1.0  0.04227212463193153  0.2519336635630762  0.050501159861189304  1.0000
  H   H10       1.0  0.006392704473916265  0.8302228373039336  0.2728494725114661  1.0000
  H   H11       1.0  0.03600668160689158  0.872808284613048  0.7596754596043311  1.0000
  H   H12       1.0  0.023894084507046092  0.8517085843494785  0.014921614188192487  1.0000
  H   H13       1.0  0.9914193770410362  0.12270895260125526  0.8458925664299071  1.0000
  H   H14       1.0  0.10529211362737828  0.10014265725717332  0.871587969334231  1.0000
  H   H15       1.0  0.046069110608168956  0.9667301462397232  0.7857075307638026  1.0000
  C   C20       1.0  0.007181381458318145  0.5890978640997241  0.9848883332221955  1.0000
  C   C21       1.0  0.08467684668208283  0.6033088055595537  0.05718601106396704  1.0000
  C   C22       1.0  0.16120528958042601  0.6039840569076702  0.981996229977388  1.0000
  C   C23       1.0  0.16158316865844546  0.5903154141687915  0.8336439267540814  1.0000
  C   C24       1.0  0.08540076552778952  0.5784952901912777  0.7594147348594276  1.0000
  C   C25       1.0  0.007434141506644126  0.5800639381874396  0.832585056286268  1.0000
  F   F1        1.0  0.23533252641460733  0.6161794185636861  0.05366029531691763  1.0000
  H   H16       1.0  0.8114114587353596  0.4740797377782728  0.09757425744643333  1.0000
  H   H17       1.0  0.22100160260144708  0.590253762945899  0.7755283293242226  1.0000
  H   H18       1.0  0.8748585250101165  0.5085701523441231  0.557412446700539  1.0000
  Zn  Zn1       1.0  0.9144572273040555  0.5856220404141511  0.4084250587548146  1.0000
  Zn  Zn2       1.0  0.10015021901227333  0.5835391448489671  0.40904764442321095  1.0000
  C   C26       1.0  0.007419852499793041  0.5760237293995515  0.6723618770459354  1.0000
  C   C27       1.0  0.0071896104233475375  0.5931392520711387  0.14511097153675512  1.0000
  C   C28       1.0  0.005680903174542395  0.8481563300772036  0.402542346220927  1.0000
  C   C29       1.0  0.008928507069475783  0.3210049178298033  0.4149305820125144  1.0000
  O   O2        1.0  0.0776619334608335  0.5936988362940827  0.1991194311986062  1.0000
  O   O3        1.0  0.07788422009629808  0.5738821916199774  0.6188255318418592  1.0000
  O   O4        1.0  0.07647904700882502  0.7936327029152067  0.4009443459772333  1.0000
  O   O5        1.0  0.07906704308811191  0.37394833718410814  0.41700050861252924  1.0000
  O   O6        1.0  0.9355403398603005  0.7952128487914514  0.4004721943454439  1.0000
  O   O7        1.0  0.9369455022589795  0.5754640717723472  0.6183533003392667  1.0000
  O   O8        1.0  0.936723215471628  0.595280684661049  0.19864546446061992  1.0000
  O   O9        1.0  0.9381283251911845  0.37553017407826106  0.4165266501051941  1.0000
