data_image0
_chemical_formula_structural       NC9NC3OH6C8H10C6FH3Zn2C4O8
_chemical_formula_sum              "N2 C30 O9 H19 F1 Zn2"
_cell_length_a       15.78231758774541
_cell_length_b       9.275653711864159
_cell_length_c       9.275646106892307
_cell_angle_alpha    85.13522125218176
_cell_angle_beta     90.10253560025424
_cell_angle_gamma    89.08352321082864

_space_group_name_H-M_alt    "P 1"
_space_group_IT_number       1

loop_
  _space_group_symop_operation_xyz
  'x, y, z'

loop_
  _atom_site_type_symbol
  _atom_site_label
  _atom_site_symmetry_multiplicity
  _atom_site_fract_x
  _atom_site_fract_y
  _atom_site_fract_z
  _atom_site_occupancy
  N   N1        1.0  0.7885815892007875  0.5859610371633741  0.41569351877304883  1.0000
  C   C1        1.0  0.7405700168856668  0.49456791828396973  0.44216441658495653  1.0000
  C   C2        1.0  0.6809617133274198  0.3811268385022313  0.475021624472195  1.0000
  C   C3        1.0  0.701435786113354  0.23862750145369674  0.5162073222567021  1.0000
  C   C4        1.0  0.625098508169686  0.1695658620654792  0.5362503743753184  1.0000
  C   C5        1.0  0.562717276829627  0.2750311917926578  0.5058141202307485  1.0000
  C   C6        1.0  0.469737363314959  0.2555311780732299  0.5115433007729857  1.0000
  C   C7        1.0  0.41531137644263805  0.37509130182251504  0.4768565873568733  1.0000
  C   C8        1.0  0.3271959660587702  0.35910167332020415  0.4815623359286587  1.0000
  C   C9        1.0  0.27205366839331946  0.4821405584961609  0.44585723010891964  1.0000
  N   N2        1.0  0.2277322458165439  0.5810479632420094  0.41715350073495827  1.0000
  C   C10       1.0  0.2928262693901357  0.2233739485477353  0.5210086823195976  1.0000
  C   C11       1.0  0.3463199175024086  0.10406096042310488  0.5556285240908174  1.0000
  C   C12       1.0  0.43425216720720156  0.11961134323635571  0.5510506364888996  1.0000
  O   O1        1.0  0.5984639037982789  0.40002247015461895  0.46963489383740753  1.0000
  H   H1        1.0  0.764169838182561  0.19057221476430805  0.5300401064168307  1.0000
  H   H2        1.0  0.6170130190140524  0.05601168190132633  0.5690870959152112  1.0000
  H   H3        1.0  0.4413153308143847  0.4807115940817465  0.44615508821615313  1.0000
  H   H4        1.0  0.2247871139492341  0.2098315892534508  0.5249918479368456  1.0000
  H   H5        1.0  0.3195815353061739  0.999162738282524  0.5861206026033372  1.0000
  H   H6        1.0  0.4738767981157133  0.025106956575404512  0.5784811575578968  1.0000
  C   C13       1.0  0.01053882300233555  0.16010306587793632  0.4150845865201678  1.0000
  C   C14       1.0  0.9906142666598897  0.24510241089982052  0.2862997642215934  1.0000
  C   C15       1.0  0.963051060965715  0.1814947831049658  0.16307517571648256  1.0000
  C   C16       1.0  0.9566725964836047  0.03092332415104116  0.16766555894662782  1.0000
  C   C17       1.0  0.9775107800691514  0.9447559064658259  0.29367200227808143  1.0000
  C   C18       1.0  0.00578315444303712  0.006894602215560699  0.4177748579349909  1.0000
  C   C19       1.0  0.9431637065130708  0.27396955984480686  0.025493029928614463  1.0000
  C   C20       1.0  0.022402098165039463  0.29591088301824153  0.9328800039638927  1.0000
  H   H7        1.0  0.08751754534324774  0.42165585259662075  0.6153842667449454  1.0000
  H   H8        1.0  0.9946704286242719  0.36191711799378634  0.2824249261793479  1.0000
  H   H9        1.0  0.9363536892444779  0.9799177506164757  0.0729297143135168  1.0000
  H   H10       1.0  0.9735919730799892  0.828338010475787  0.2927779878048151  1.0000
  H   H11       1.0  0.013826459276278902  0.7051633878991976  0.6558020370817383  1.0000
  H   H12       1.0  0.893745657820988  0.22231024490520504  0.9625695588018015  1.0000
  H   H13       1.0  0.917454778175859  0.38114821121210646  0.050988808709085724  1.0000
  H   H14       1.0  0.0718007459347627  0.35092027302325945  0.9926299396957678  1.0000
  H   H15       1.0  0.047828002664684205  0.190036126930329  0.9032664804477064  1.0000
  H   H16       1.0  0.006391364479978232  0.3642215578866807  0.8320942260422997  1.0000
  C   C21       1.0  0.00803702864969757  0.5880127403578042  0.992603302874303  1.0000
  C   C22       1.0  0.0855401457320552  0.6022139778023423  0.06496997393830806  1.0000
  C   C23       1.0  0.16206895221840203  0.6028887680515633  0.9897834711543281  1.0000
  C   C24       1.0  0.162439471437703  0.5892294590164738  0.8413648075347884  1.0000
  C   C25       1.0  0.08625070378028483  0.5774174064720987  0.7670782296856049  1.0000
  C   C26       1.0  0.008284924395132842  0.5789849833088176  0.8402561667992821  1.0000
  F   F1        1.0  0.23620275562546966  0.6150758020414405  0.06150674420358948  1.0000
  H   H17       1.0  0.8122051746014449  0.47307315476215844  0.10473082136780487  1.0000
  H   H18       1.0  0.22185787218470288  0.5891678498924398  0.7832489107921394  1.0000
  H   H19       1.0  0.8756708121845023  0.5075400173690265  0.5647364594038109  1.0000
  Zn  Zn1       1.0  0.9153110029437567  0.5845392901565136  0.41612315350270257  1.0000
  Zn  Zn2       1.0  0.10100287312020462  0.5824578169074005  0.4167356268448308  1.0000
  C   C27       1.0  0.008268459944352099  0.5749475333985145  0.6800133726007453  1.0000
  C   C28       1.0  0.008047433693585623  0.5920513686464222  0.1528455618719271  1.0000
  C   C29       1.0  0.006676039980642246  0.8468943069143422  0.4115150283451787  1.0000
  C   C30       1.0  0.009639800044738637  0.32010286275068317  0.4213439773619032  1.0000
  O   O2        1.0  0.07852005803829742  0.5926105707543687  0.2068567382797981  1.0000
  O   O3        1.0  0.07873167443328087  0.5728074579791522  0.6264666303661588  1.0000
  O   O4        1.0  0.07744482565549399  0.7924079114947493  0.40965231933912327  1.0000
  O   O5        1.0  0.07980684336245031  0.3730101294157057  0.42367094091528923  1.0000
  O   O6        1.0  0.9365069693339776  0.7939869783601629  0.4091878392156507  1.0000
  O   O7        1.0  0.9377938083567887  0.5743882579364319  0.6260020787916836  1.0000
  O   O8        1.0  0.937582191792803  0.5941913389479496  0.20639045131561407  1.0000
  O   O9        1.0  0.9388689772030563  0.3745908861443079  0.42320476212605596  1.0000
