data_image0
_chemical_formula_structural       NC9NC3OH6C6BrH3C7OH5Zn2C4O8
_chemical_formula_sum              "N2 C29 O10 H14 Br1 Zn2"
_cell_length_a       15.78231758774541
_cell_length_b       10.302969083221269
_cell_length_c       9.274081674992354
_cell_angle_alpha    86.07102864227298
_cell_angle_beta     89.75780300142802
_cell_angle_gamma    89.63144763104106

_space_group_name_H-M_alt    "P 1"
_space_group_IT_number       1

loop_
  _space_group_symop_operation_xyz
  'x, y, z'

loop_
  _atom_site_type_symbol
  _atom_site_label
  _atom_site_symmetry_multiplicity
  _atom_site_fract_x
  _atom_site_fract_y
  _atom_site_fract_z
  _atom_site_occupancy
  N   N1        1.0  0.8032204893451942  0.40000589297828926  0.41281402141914453  1.0000
  C   C1        1.0  0.754599128815831  0.31818428971868684  0.4395389302439505  1.0000
  C   C2        1.0  0.6942339284336907  0.21662379467497161  0.47271142702529945  1.0000
  C   C3        1.0  0.7137575404001467  0.08904673506228852  0.5142932953865539  1.0000
  C   C4        1.0  0.6369593281701438  0.027218565940434484  0.5345282375108038  1.0000
  C   C5        1.0  0.5752813784149756  0.12164056105026444  0.5037987110197186  1.0000
  C   C6        1.0  0.48217106497265466  0.10418419962449588  0.5095819780258408  1.0000
  C   C7        1.0  0.4285430083670767  0.21122188715221338  0.4745630466280737  1.0000
  C   C8        1.0  0.3403206439917653  0.19690815345970325  0.4793131342605983  1.0000
  C   C9        1.0  0.2859995263890491  0.3070600841314117  0.4432661565462048  1.0000
  N   N2        1.0  0.2423382318823002  0.3956080133214859  0.4142876081721084  1.0000
  C   C10       1.0  0.3050448671785246  0.07539743986636305  0.5191365291621644  1.0000
  C   C11       1.0  0.3577422169690008  0.9685810887949493  0.5540878956485913  1.0000
  C   C12       1.0  0.4457784876500042  0.9825015898648611  0.5494668889237122  1.0000
  O   O1        1.0  0.6118618825864224  0.23354202550060824  0.46727206226666884  1.0000
  H   H1        1.0  0.7761712701761816  0.0460227181090076  0.5282597573454069  1.0000
  H   H2        1.0  0.628116379594454  0.925555875479245  0.5676806346272092  1.0000
  H   H3        1.0  0.4552520729911658  0.3057787256338391  0.44356814384166793  1.0000
  H   H4        1.0  0.2369151359135712  0.0632744322413703  0.5231572507848663  1.0000
  H   H5        1.0  0.33030354329405925  0.8746706937299908  0.5848713713235301  1.0000
  H   H6        1.0  0.48477236059455575  0.8978955913821453  0.5771599887676087  1.0000
  C   C13       1.0  0.022783374504084408  0.016559460351181388  0.4135570937774756  1.0000
  C   C14       1.0  0.11054724127574489  0.012962005080229485  0.4381431242465266  1.0000
  C   C15       1.0  0.15408284364737193  0.8942396214744811  0.4503389317580335  1.0000
  C   C16       1.0  0.11054730872775799  0.777879642607569  0.43814285097456734  1.0000
  C   C17       1.0  0.022783387854210066  0.7790444768067265  0.41355699826358916  1.0000
  C   C18       1.0  0.9793252638544285  0.898981064729582  0.4013827728492112  1.0000
  Br  Br1       1.0  0.2734568086480009  0.8910008214544022  0.48378055583043184  1.0000
  H   H7        1.0  0.1454843765704561  0.10201342080312803  0.44793051672066736  1.0000
  H   H8        1.0  0.14548447846747647  0.6869324804252613  0.44792986778499566  1.0000
  H   H9        1.0  0.9116383938805649  0.9008174674393431  0.38242127326521513  1.0000
  C   C19       1.0  0.024213348422749345  0.39438434577220643  0.9902921214884608  1.0000
  C   C20       1.0  0.09302776292436227  0.45019725238635466  0.059049114948545256  1.0000
  C   C21       1.0  0.15704386795966485  0.5156359339195817  0.9787809763453549  1.0000
  C   C22       1.0  0.15222837163374925  0.5256139624844876  0.827642113976556  1.0000
  C   C23       1.0  0.08518949552602618  0.46904302218928134  0.7576882515638756  1.0000
  C   C24       1.0  0.02135342005213036  0.40121959745383085  0.8368219377752444  1.0000
  C   C25       1.0  0.22783395876973445  0.5740134894746249  0.05446344952000715  1.0000
  O   O2        1.0  0.2861458009382254  0.6339162462277075  0.985319395717704  1.0000
  H   H10       1.0  0.8234559354715075  0.31205938064179906  0.10098723198555914  1.0000
  H   H11       1.0  0.2007426762345778  0.5761176709515927  0.7631970464402311  1.0000
  H   H12       1.0  0.08440357846479873  0.4757587377071206  0.6406118542548533  1.0000
  H   H13       1.0  0.8875281243806257  0.3404450109445927  0.5612885096565041  1.0000
  H   H14       1.0  0.23030412563539515  0.5657351826172865  0.17137892886160144  1.0000
  Zn  Zn1       1.0  0.9299403526336953  0.39873335918888797  0.4132475834008911  1.0000
  Zn  Zn2       1.0  0.11561830029440817  0.3968700461527592  0.413865828786802  1.0000
  C   C26       1.0  0.02189211212667708  0.3947555844600556  0.6768097047598776  1.0000
  C   C27       1.0  0.023668567920929848  0.4008494397744898  0.15030385564837512  1.0000
  C   C28       1.0  0.02279842959528011  0.6348722580894648  0.40781330969545926  1.0000
  C   C29       1.0  0.022762186833776402  0.16073120759552117  0.41930032734697686  1.0000
  O   O3        1.0  0.09394954807626349  0.40230640285681135  0.20423987626026063  1.0000
  O   O4        1.0  0.0925363993523089  0.39188342713661695  0.6233425031751743  1.0000
  O   O5        1.0  0.09326730722090804  0.5857806994158623  0.40612600780353403  1.0000
  O   O6        1.0  0.09321857721347082  0.20840913962803212  0.42145626334898606  1.0000
  O   O7        1.0  0.9523400123518873  0.5871942663508241  0.4056571486201491  1.0000
  O   O8        1.0  0.951609104739093  0.393298553258348  0.6228735671390473  1.0000
  O   O9        1.0  0.9530222593739702  0.40372146974395245  0.2037692072929682  1.0000
  O   O10       1.0  0.9522912881426261  0.2098241981019169  0.4209857024460511  1.0000
