data_image0
_chemical_formula_structural       NC9NC3OH6C6NCOH7C6OCH7Zn2C4O8
_chemical_formula_sum              "N3 C30 O11 H20 Zn2"
_cell_length_a       15.78231758774541
_cell_length_b       10.299619329790078
_cell_length_c       9.273891588657152
_cell_angle_alpha    86.08234378481637
_cell_angle_beta     89.76748324947235
_cell_angle_gamma    89.65730562172187

_space_group_name_H-M_alt    "P 1"
_space_group_IT_number       1

loop_
  _space_group_symop_operation_xyz
  'x, y, z'

loop_
  _atom_site_type_symbol
  _atom_site_label
  _atom_site_symmetry_multiplicity
  _atom_site_fract_x
  _atom_site_fract_y
  _atom_site_fract_z
  _atom_site_occupancy
  N   N1        1.0  0.8034755260435501  0.40031730516231684  0.4129546830993732  1.0000
  C   C1        1.0  0.7548327241838986  0.3184720927865403  0.4396704743747335  1.0000
  C   C2        1.0  0.6944409099384957  0.21688229312378018  0.4728316540666438  1.0000
  C   C3        1.0  0.7139310816713366  0.0892684147438525  0.5143993050605649  1.0000
  C   C4        1.0  0.6371166713811497  0.02742240879403624  0.5346273580930612  1.0000
  C   C5        1.0  0.5754634758695724  0.12187165787484601  0.5039083547459846  1.0000
  C   C6        1.0  0.4823485960685042  0.10441026620796601  0.509689677661952  1.0000
  C   C7        1.0  0.42874858293674284  0.21147883405880744  0.4746826729082663  1.0000
  C   C8        1.0  0.34052247506222433  0.19716097636038127  0.47943116654883045  1.0000
  C   C9        1.0  0.286230215945122  0.3073446850612667  0.4433964623575668  1.0000
  N   N2        1.0  0.24259211979272352  0.39591815956618964  0.41442778029182437  1.0000
  C   C10       1.0  0.3052148697657458  0.07561521266742834  0.5192410230959508  1.0000
  C   C11       1.0  0.3578842345516185  0.9687680455254966  0.5541804876664896  1.0000
  C   C12       1.0  0.4459241457488285  0.9826925571890478  0.5495610311235647  1.0000
  O   O1        1.0  0.6120733060744704  0.23380541268826832  0.4673941757164046  1.0000
  H   H1        1.0  0.7763335284809876  0.04623197641507493  0.5283609715939315  1.0000
  H   H2        1.0  0.6282470768687385  0.9257303798454758  0.5677684260059515  1.0000
  H   H3        1.0  0.4554824152333237  0.3060629472902532  0.4436983052861028  1.0000
  H   H4        1.0  0.2370819677127366  0.06348871202477735  0.5232603946561016  1.0000
  H   H5        1.0  0.3304209625764973  0.8748305622147686  0.5849535002078603  1.0000
  H   H6        1.0  0.4848958535269474  0.8980621509816037  0.5772447039448099  1.0000
  C   C13       1.0  0.022925606618475074  0.01675003368123185  0.4136533365625661  1.0000
  C   C14       1.0  0.9824995708531611  0.024150273212476543  0.27861521278586215  1.0000
  C   C15       1.0  0.9633971198798152  0.9111299293208094  0.20957980503519025  1.0000
  C   C16       1.0  0.9827515425060314  0.7889901933314808  0.2787270186690338  1.0000
  C   C17       1.0  0.02315004880940429  0.779475509686981  0.4137416296032417  1.0000
  C   C18       1.0  0.04330965628007499  0.8939668092933192  0.4801701307807795  1.0000
  N   N3        1.0  0.9208499377594537  0.922521073490713  0.0724016937569254  1.0000
  C   C19       1.0  0.9345441871859278  0.8367838939420336  0.959034788607762  1.0000
  O   O2        1.0  0.9940094604300921  0.7545129994743587  0.965293797933926  1.0000
  H   H7        1.0  0.09837407926779274  0.21000653556814952  0.6690858782815934  1.0000
  H   H8        1.0  0.9662530090302475  0.11798591243008305  0.22573171795646596  1.0000
  H   H9        1.0  0.9647965645033332  0.7013715048150096  0.22880762170944036  1.0000
  H   H10       1.0  0.07448362468249425  0.8873863495941416  0.5842614557590884  1.0000
  H   H11       1.0  0.03751666728217141  0.44832450088178594  0.46658216627905924  1.0000
  H   H12       1.0  0.8817066741100453  0.0033250459406417546  0.048926013741990244  1.0000
  H   H13       1.0  0.8946306495957596  0.8452850846933015  0.8642483454161436  1.0000
  C   C20       1.0  0.02442491055208395  0.3946593767715905  0.9904263940890203  1.0000
  C   C21       1.0  0.09383034628947695  0.4488175951700881  0.059239219571380675  1.0000
  C   C22       1.0  0.15843244949887983  0.5127215014158427  0.9796535981503377  1.0000
  C   C23       1.0  0.15386015466890218  0.522790293726934  0.8281987967851788  1.0000
  C   C24       1.0  0.08623460923503834  0.46782789030752575  0.7580496541255384  1.0000
  C   C25       1.0  0.021650756920318568  0.4015660860137442  0.8369685176479749  1.0000
  O   O3        1.0  0.22552343927159924  0.5653039264464824  0.05509138373334111  1.0000
  C   C26       1.0  0.29531765489707734  0.632952051278699  0.9882569902451573  1.0000
  H   H14       1.0  0.8228612660095852  0.31691413960620807  0.10075830361248794  1.0000
  H   H15       1.0  0.2026844225464156  0.57189262611134  0.7634461395796546  1.0000
  H   H16       1.0  0.08555289794835724  0.47452796891277405  0.6409669589797509  1.0000
  H   H17       1.0  0.8872328897708422  0.3440623411270079  0.56106819087386  1.0000
  H   H18       1.0  0.27259907662357463  0.7210628688370422  0.9237952817449228  1.0000
  H   H19       1.0  0.33062811187668206  0.5681446896449157  0.9179553824505491  1.0000
  H   H20       1.0  0.338699979728315  0.6635594095618419  0.07324962979262417  1.0000
  Zn  Zn1       1.0  0.9301950576387271  0.3990444056591522  0.4133881035234359  1.0000
  Zn  Zn2       1.0  0.11587251797310527  0.3971805557654114  0.4140061414074858  1.0000
  C   C27       1.0  0.02217173260139659  0.3950869650934924  0.676953343084772  1.0000
  C   C28       1.0  0.023897870621175207  0.40113961574654344  0.15044105025630009  1.0000
  C   C29       1.0  0.023122110793070357  0.635257313454108  0.40798111684989835  1.0000
  C   C30       1.0  0.02294742835973417  0.1609677083512382  0.4194133529458126  1.0000
  O   O4        1.0  0.0941846180690264  0.40260145609955283  0.20437797211840872  1.0000
  O   O5        1.0  0.0928098823347292  0.3922095226930134  0.6234850826412297  1.0000
  O   O6        1.0  0.09357636994882562  0.5861501381258405  0.4062881039279195  1.0000
  O   O7        1.0  0.09341806745268319  0.20866084971117554  0.4215748425483823  1.0000
  O   O8        1.0  0.9526494447965701  0.5875641123507804  0.40581940216405243  1.0000
  O   O9        1.0  0.9518829578896619  0.3936250565900349  0.6230163042042369  1.0000
  O   O10       1.0  0.9532576993459251  0.4040169306013637  0.20390746071985433  1.0000
  O   O11       1.0  0.9524911483692486  0.21007631580592936  0.4211044392146781  1.0000
