data_image0
_chemical_formula_structural       NC9NC3OH6C7OC6OCH11C7OC6OCH10Zn2C4O8
_chemical_formula_sum              "N2 C44 O13 H27 Zn2"
_cell_length_a       15.78231758774541
_cell_length_b       10.299359160628079
_cell_length_c       10.299362532796529
_cell_angle_alpha    85.58430886835329
_cell_angle_beta     90.09919445181322
_cell_angle_gamma    89.65438836023732

_space_group_name_H-M_alt    "P 1"
_space_group_IT_number       1

loop_
  _space_group_symop_operation_xyz
  'x, y, z'

loop_
  _atom_site_type_symbol
  _atom_site_label
  _atom_site_symmetry_multiplicity
  _atom_site_fract_x
  _atom_site_fract_y
  _atom_site_fract_z
  _atom_site_occupancy
  N   N1        1.0  0.797979717855691  0.41285301677962516  0.5700639778022001  1.0000
  C   C1        1.0  0.7494313674304246  0.3307952648381091  0.5941354039673707  1.0000
  C   C2        1.0  0.6891567917086676  0.22894164884936272  0.6240142452893064  1.0000
  C   C3        1.0  0.7087939313257942  0.10099706876150094  0.6614674756998017  1.0000
  C   C4        1.0  0.6320510315058544  0.038990140175712645  0.6796933279527247  1.0000
  C   C5        1.0  0.5702892202397735  0.13368378554303884  0.6520149309522187  1.0000
  C   C6        1.0  0.47719477151086426  0.11617640662024195  0.6572240091702833  1.0000
  C   C7        1.0  0.42347099994630616  0.22352347081878407  0.6256820461330465  1.0000
  C   C8        1.0  0.33526167234728754  0.2091678420821987  0.6299605260399443  1.0000
  C   C9        1.0  0.28084202255821034  0.3196382222075584  0.5974925868494801  1.0000
  N   N2        1.0  0.2371015158349436  0.4084421548063618  0.5713912651411075  1.0000
  C   C10       1.0  0.3000947976987806  0.087305378740123  0.6658299466490833  1.0000
  C   C11       1.0  0.3528876816532713  0.980180252949  0.6973110546321543  1.0000
  C   C12       1.0  0.4409112687094552  0.9941415091371884  0.6931488395445022  1.0000
  O   O1        1.0  0.6067699552850169  0.24590803360239688  0.6191149742521509  1.0000
  H   H1        1.0  0.7712457472134991  0.057849550424153844  0.6740471992525643  1.0000
  H   H2        1.0  0.6232986098592896  0.9370344506350873  0.7095540491998202  1.0000
  H   H3        1.0  0.45009530085333327  0.3183540738036037  0.5977645551648736  1.0000
  H   H4        1.0  0.2319760995789232  0.07514690654420539  0.6694514742258905  1.0000
  H   H5        1.0  0.32553319386840956  0.8859979613141759  0.7250381107363091  1.0000
  H   H6        1.0  0.4799808438043576  0.9092908679933951  0.7180923439198621  1.0000
  C   C13       1.0  0.017444946093247093  0.029270253719426924  0.5706958361600186  1.0000
  C   C14       1.0  0.9473473580155404  0.03522873847641827  0.4860879287690635  1.0000
  C   C15       1.0  0.912599270728946  0.9212429908463824  0.4423227250193036  1.0000
  C   C16       1.0  0.9475492315533438  0.7999652779006992  0.4863436424210648  1.0000
  C   C17       1.0  0.01764438119758194  0.7920148211061697  0.5707706845702287  1.0000
  C   C18       1.0  0.05230554285172492  0.9072562826386622  0.612250126651173  1.0000
  C   C19       1.0  0.8379948504583079  0.9296773374934807  0.35416469861189676  1.0000
  O   O2        1.0  0.7841514683365333  0.019094499124524524  0.36556835877439264  1.0000
  C   C20       1.0  0.8244705023376868  0.8367434753530191  0.2530774295344653  1.0000
  C   C21       1.0  0.8933778487784932  0.7826823358625298  0.18923123838218195  1.0000
  C   C22       1.0  0.8797422847903597  0.6964024429645572  0.0931092704534218  1.0000
  C   C23       1.0  0.7974220650104568  0.6633040662901661  0.05809813151148058  1.0000
  C   C24       1.0  0.7282292892653819  0.718402436050721  0.1206317153600769  1.0000
  C   C25       1.0  0.7417873814149363  0.8047420110822632  0.21679987010645288  1.0000
  O   O3        1.0  0.7871428459645226  0.5761498130913746  0.9611698238048425  1.0000
  C   C26       1.0  0.7072864339602327  0.5340933920340522  0.9160608650276579  1.0000
  H   H7        1.0  0.1494976399947402  0.22526684492838567  0.7307685036103644  1.0000
  H   H8        1.0  0.9200915812417116  0.12882019323543  0.45302112345623846  1.0000
  H   H9        1.0  0.9194155802610724  0.7116011286045305  0.4558074807284431  1.0000
  H   H10       1.0  0.10637647875550149  0.9018554711496404  0.6773815761317628  1.0000
  H   H11       1.0  0.9578003912874564  0.8081305051683979  0.21255682597655712  1.0000
  H   H12       1.0  0.9335080619161824  0.655399547291837  0.045091046685072925  1.0000
  H   H13       1.0  0.6637710529044752  0.695231098799944  0.09566142227300015  1.0000
  H   H14       1.0  0.6875478703414231  0.8457035412672534  0.26376591228263907  1.0000
  H   H15       1.0  0.7178501968693853  0.4655678205831894  0.8396188171885282  1.0000
  H   H16       1.0  0.670047308617093  0.6188023352032903  0.8734387465205415  1.0000
  H   H17       1.0  0.6717321470828758  0.4829067734133672  0.997488229231423  1.0000
  C   C27       1.0  0.01747850087835734  0.4105226872274247  0.18936614877770586  1.0000
  C   C28       1.0  0.9370320590799739  0.35264884809821107  0.19240494236972389  1.0000
  C   C29       1.0  0.8960922143650226  0.3247859347561357  0.07676513717626633  1.0000
  C   C30       1.0  0.9372707142159199  0.35281001227636466  0.9571513797713904  1.0000
  C   C31       1.0  0.017610829233272604  0.4107624176295813  0.9521003472823435  1.0000
  C   C32       1.0  0.057181635910930034  0.439540700741676  0.06874494840352363  1.0000
  C   C33       1.0  0.8115733276362027  0.2623358473004911  0.08230632760608937  1.0000
  O   O4        1.0  0.794241311531516  0.1833016178024014  0.17814279737630123  1.0000
  C   C34       1.0  0.7467200927393646  0.2895390792238419  0.9791980783902539  1.0000
  C   C35       1.0  0.7402365009005569  0.41297945111026224  0.9113370860870891  1.0000
  C   C36       1.0  0.6782235296551447  0.4377824861746151  0.8154564137099487  1.0000
  C   C37       1.0  0.6212013472605961  0.3406888275706007  0.7862257495965355  1.0000
  C   C38       1.0  0.6267939095725513  0.21745096453350832  0.8550022835701785  1.0000
  C   C39       1.0  0.6887992544261762  0.19252080418263467  0.9509553255302432  1.0000
  O   O5        1.0  0.5602132423329388  0.37046165766779526  0.6890596977621707  1.0000
  C   C40       1.0  0.4984108472257667  0.2813192360829111  0.6494915451892607  1.0000
  H   H18       1.0  0.1694253966029613  0.519237712130626  0.39094045149222945  1.0000
  H   H19       1.0  0.9056539771036277  0.33022259794813946  0.28484196856773947  1.0000
  H   H20       1.0  0.9069746676955978  0.3280337082682916  0.8680032953283441  1.0000
  H   H21       1.0  0.11915839567007458  0.48424257797792203  0.06558122840255078  1.0000
  H   H22       1.0  0.7824903635851059  0.4908074505971142  0.9332966200595971  1.0000
  H   H23       1.0  0.6742113582927447  0.5332842537666104  0.7638899384524014  1.0000
  H   H24       1.0  0.5835669336584175  0.1403185430513829  0.8351366507662236  1.0000
  H   H25       1.0  0.6919881467712659  0.09684543387781351  0.002406102529676209  1.0000
  H   H26       1.0  0.45702737779919683  0.2495212101061277  0.7329130001644875  1.0000
  H   H27       1.0  0.5299741969438165  0.1956803798908302  0.610922818610069  1.0000
  Zn  Zn1       1.0  0.9247007799473992  0.4115766705963106  0.5704544973476766  1.0000
  Zn  Zn2       1.0  0.11038042432089187  0.4097079046232075  0.5710113608244018  1.0000
  C   C41       1.0  0.01758256181062599  0.40554334117210267  0.8079267250724427  1.0000
  C   C42       1.0  0.017500670524158934  0.41574285233621344  0.33353926680712337  1.0000
  C   C43       1.0  0.0176014166195526  0.6478383143319454  0.5655813433210259  1.0000
  C   C44       1.0  0.017481751959797162  0.17344631949893904  0.5758847174537877  1.0000
  O   O6        1.0  0.08797256674056997  0.41677993461993657  0.3821364084871026  1.0000
  O   O7        1.0  0.08803721901816658  0.40308692889355235  0.7597518559460168  1.0000
  O   O8        1.0  0.08805149485449348  0.598743193942914  0.5640562428315787  1.0000
  O   O9        1.0  0.08795822752989552  0.2211236794680773  0.5778319240382297  1.0000
  O   O10       1.0  0.9471229133750448  0.6001608963905702  0.563633933936988  1.0000
  O   O11       1.0  0.9471086379308021  0.4045061916577699  0.7593294779593172  1.0000
  O   O12       1.0  0.9470439854268635  0.4181991516358472  0.3817124691029135  1.0000
  O   O13       1.0  0.9470296462271862  0.22254288722561522  0.5774080820204908  1.0000
