data_image0
_chemical_formula_structural       NC5NC3OH4C9H10C9H8Zn2C4O8
_chemical_formula_sum              "N2 C30 O9 H22 Zn2"
_cell_length_a       13.84702359539666
_cell_length_b       10.297183801781406
_cell_length_c       9.275155815604963
_cell_angle_alpha    86.02609203372302
_cell_angle_beta     90.34320021190106
_cell_angle_gamma    89.99848952151973

_space_group_name_H-M_alt    "P 1"
_space_group_IT_number       1

loop_
  _space_group_symop_operation_xyz
  'x, y, z'

loop_
  _atom_site_type_symbol
  _atom_site_label
  _atom_site_symmetry_multiplicity
  _atom_site_fract_x
  _atom_site_fract_y
  _atom_site_fract_z
  _atom_site_occupancy
  N   N1        1.0  0.9026850651495515  0.409383699694911  0.4091924717659854  1.0000
  C   C1        1.0  0.8308046640015699  0.4020635479885004  0.47224619977725624  1.0000
  C   C2        1.0  0.7412865744842997  0.3929484127675702  0.5507613767681283  1.0000
  C   C3        1.0  0.6533852266359577  0.4017542065158837  0.47491007978611655  1.0000
  C   C4        1.0  0.5658373423342953  0.39305072226136695  0.5498796921099358  1.0000
  C   C5        1.0  0.47565971198663676  0.40211697702270927  0.47178566999296034  1.0000
  N   N2        1.0  0.4031685526431425  0.40940555157040825  0.40900430207321237  1.0000
  C   C6        1.0  0.5661863959630985  0.3755151715218811  0.7009259550502365  1.0000
  C   C7        1.0  0.6537077996838551  0.3667011486192997  0.7768452765195761  1.0000
  C   C8        1.0  0.741573139857714  0.3753485542753278  0.7023602973919005  1.0000
  O   O1        1.0  0.8288154613596352  0.36651949841045894  0.7784110088836829  1.0000
  H   H1        1.0  0.6531193901483747  0.4153393486681327  0.3578924322563659  1.0000
  H   H2        1.0  0.49887842650896697  0.3686650637832527  0.7599304899776034  1.0000
  H   H3        1.0  0.6531943147368764  0.3531429576757463  0.8936315371019354  1.0000
  H   H4        1.0  0.8308046288981333  0.3538302863461406  0.8877112435087013  1.0000
  C   C9        1.0  0.15293565497908057  0.02792064664975347  0.4093025773549994  1.0000
  C   C10       1.0  0.14948632818813112  0.03660383947673451  0.2576426432225616  1.0000
  C   C11       1.0  0.14771891382726765  0.924436005683336  0.17994282404474937  1.0000
  C   C12       1.0  0.1494725572160607  0.8014281855624799  0.25705483192590584  1.0000
  C   C13       1.0  0.1529272541390223  0.7908587006594235  0.40890659333414514  1.0000
  C   C14       1.0  0.1546353347226832  0.9045733679795706  0.4840392128005653  1.0000
  C   C15       1.0  0.14398795614507875  0.943259686656251  0.015911896443923986  1.0000
  C   C16       1.0  0.0871049172720455  0.8439178398860057  0.9357036106184959  1.0000
  C   C17       1.0  0.19710710524592634  0.844195332914206  0.9310838133340592  1.0000
  H   H5        1.0  0.15427396110981584  0.35211318832753746  0.4677420110457382  1.0000
  H   H6        1.0  0.14815490053705618  0.13137839632430093  0.19909354125386325  1.0000
  H   H7        1.0  0.1481757601626326  0.7133867901075527  0.2001316280715495  1.0000
  H   H8        1.0  0.15729607873833684  0.897146659486104  0.6010480369156945  1.0000
  H   H9        1.0  0.15943937539764708  0.5636794693095065  0.695711817464223  1.0000
  H   H10       1.0  0.14278964736906197  0.04356615658691032  0.9631894724074437  1.0000
  H   H11       1.0  0.055153628079288364  0.760787796112595  0.0013043419568035143  1.0000
  H   H12       1.0  0.05260841963336649  0.8839981888907431  0.8337468694020225  1.0000
  H   H13       1.0  0.2319762412533864  0.7612346568050672  0.9938790182814042  1.0000
  H   H14       1.0  0.22690203993530386  0.8844354867371749  0.8264256741358582  1.0000
  C   C18       1.0  0.151162049638214  0.4061060377006702  0.985875734984702  1.0000
  C   C19       1.0  0.07561347503182891  0.46940034522234186  0.05368616464231413  1.0000
  C   C20       1.0  0.006533266382486632  0.5413284045259343  0.9723900408708616  1.0000
  C   C21       1.0  0.011720537812053507  0.5514683484297569  0.8218010302494343  1.0000
  C   C22       1.0  0.08532574652008561  0.4874760049142626  0.7522833288427138  1.0000
  C   C23       1.0  0.15470082293216866  0.4126732662743193  0.8323334214824385  1.0000
  C   C24       1.0  0.9406881900970512  0.6264312517335955  0.73819144707553  1.0000
  C   C25       1.0  0.8812113951632169  0.6892024462081425  0.6681531883199989  1.0000
  C   C26       1.0  0.8090469995134898  0.7653646773328613  0.5831621266247846  1.0000
  H   H15       1.0  0.3753174066797573  0.30130707236798693  0.09880368473819678  1.0000
  H   H16       1.0  0.07127480977454148  0.4657991869593819  0.17048120319263438  1.0000
  H   H17       1.0  0.949543604097983  0.5901517555378692  0.027199161578312696  1.0000
  H   H18       1.0  0.08711001114029604  0.49358458563518925  0.6351331916915428  1.0000
  H   H19       1.0  0.3042660998658899  0.3374512754393384  0.5587338334651424  1.0000
  H   H20       1.0  0.8286712689922964  0.7690979235132304  0.4671538219203253  1.0000
  H   H21       1.0  0.7371221408782093  0.7191028090883773  0.5982394630061871  1.0000
  H   H22       1.0  0.8066018480519439  0.8656717405331518  0.6196157141313341  1.0000
  Zn  Zn1       1.0  0.04711382165683142  0.40938659251265674  0.40914648219536476  1.0000
  Zn  Zn2       1.0  0.25873982136673446  0.4093921207590856  0.4090620592887406  1.0000
  C   C27       1.0  0.15402983631239978  0.40625684699349063  0.6723375157480509  1.0000
  C   C28       1.0  0.15182611823381054  0.41252350650729924  0.14587116542097256  1.0000
  C   C29       1.0  0.15289984701045678  0.6466026060952001  0.4032382578864768  1.0000
  C   C30       1.0  0.1529560356610502  0.17217618726726602  0.4149705009597784  1.0000
  O   O2        1.0  0.23235994977510366  0.41467369830095113  0.19953505833985363  1.0000
  O   O3        1.0  0.23411524013493135  0.4041098677995938  0.6186091334248018  1.0000
  O   O4        1.0  0.23320168311795536  0.5981921194598716  0.4013095785105709  1.0000
  O   O5        1.0  0.2332734341265801  0.22059145509316117  0.4168345052153293  1.0000
  O   O6        1.0  0.07258013667938612  0.5981872581780499  0.40137403629000445  1.0000
  O   O7        1.0  0.07349369335346645  0.40410656665556366  0.6186735135482315  1.0000
  O   O8        1.0  0.07173839581410357  0.41467033844462975  0.19959770570304847  1.0000
  O   O9        1.0  0.07265188061348038  0.22058808678382058  0.41689726063850774  1.0000
