data_image0
_chemical_formula_structural       NC9NC3OH6C6NO2H4C7NC2NH7Zn2C4O8
_chemical_formula_sum              "N5 C31 O11 H17 Zn2"
_cell_length_a       15.78231758774541
_cell_length_b       9.273392599741051
_cell_length_c       9.27399911348925
_cell_angle_alpha    85.18319751875556
_cell_angle_beta     89.74395178918073
_cell_angle_gamma    89.0365174922554

_space_group_name_H-M_alt    "P 1"
_space_group_IT_number       1

loop_
  _space_group_symop_operation_xyz
  'x, y, z'

loop_
  _atom_site_type_symbol
  _atom_site_label
  _atom_site_symmetry_multiplicity
  _atom_site_fract_x
  _atom_site_fract_y
  _atom_site_fract_z
  _atom_site_occupancy
  N   N1        1.0  0.7936775828646891  0.583364952153218  0.41401744063901624  1.0000
  C   C1        1.0  0.7456120389488856  0.49199288759010273  0.4405837788588123  1.0000
  C   C2        1.0  0.685936742077541  0.37857794210326734  0.47355945150232026  1.0000
  C   C3        1.0  0.7063269863124099  0.23611125926808718  0.5148939575744449  1.0000
  C   C4        1.0  0.6299487758617668  0.16706560937538062  0.5350091303958276  1.0000
  C   C5        1.0  0.5676294178561593  0.2725068620490112  0.5044627424060582  1.0000
  C   C6        1.0  0.4746376883584144  0.2530115016612009  0.5102122879442719  1.0000
  C   C7        1.0  0.4202825198498302  0.3725439680422656  0.47540071873874995  1.0000
  C   C8        1.0  0.3321573912602498  0.3565581709112582  0.48012316634772745  1.0000
  C   C9        1.0  0.2770880062935722  0.4795685758743664  0.4442895717312052  1.0000
  N   N2        1.0  0.2328252014028284  0.5784530833714081  0.41548255390081246  1.0000
  C   C10       1.0  0.2977070442814007  0.22086198051185013  0.5197112534604988  1.0000
  C   C11       1.0  0.35113000256621335  0.10157660215863909  0.5544556930244706  1.0000
  C   C12       1.0  0.4390717087210532  0.11712325605679409  0.5498615650940708  1.0000
  O   O1        1.0  0.6034497726777057  0.3974693915982695  0.46815298997711335  1.0000
  H   H1        1.0  0.7690329770410709  0.18806687290004231  0.5287769236033155  1.0000
  H   H2        1.0  0.6217964234692961  0.05353748397993674  0.5679644338598462  1.0000
  H   H3        1.0  0.44634925383776247  0.478139710581958  0.44458892003293027  1.0000
  H   H4        1.0  0.22965966673497748  0.20732286152105067  0.5237085622266594  1.0000
  H   H5        1.0  0.32432926820966873  0.9967027628347296  0.5850573170505502  1.0000
  H   H6        1.0  0.47864031445575095  0.022640756425967176  0.5773907766530435  1.0000
  C   C13       1.0  0.015841636453496347  0.15735929243191826  0.4138510343160384  1.0000
  C   C14       1.0  0.005498999849013362  0.2419576374072483  0.28197359193242877  1.0000
  C   C15       1.0  0.9876621121775091  0.17815642211512728  0.15485514753715557  1.0000
  C   C16       1.0  0.9795751307799794  0.027820150107317643  0.15606802241986234  1.0000
  C   C17       1.0  0.9912429656290811  0.9420472884401473  0.2869434313874557  1.0000
  C   C18       1.0  0.010669260377190954  0.004447432906228066  0.41566139507676403  1.0000
  N   N3        1.0  0.9604340700465933  0.9626525704793454  0.024713135535114672  1.0000
  O   O2        1.0  0.949751155154771  0.046974485622024005  0.8965426005054482  1.0000
  O   O3        1.0  0.952971336014696  0.8288008043047558  0.024918654549466405  1.0000
  H   H7        1.0  0.9973810067243539  0.23099336049878968  0.7680236272856737  1.0000
  H   H8        1.0  0.9793410428804107  0.24702158221512716  0.055630561630851234  1.0000
  H   H9        1.0  0.9871465909448995  0.8254821035458245  0.28795714224731017  1.0000
  H   H10       1.0  0.001123691574821395  0.7044061357003589  0.6550354304875967  1.0000
  C   C19       1.0  0.014696376636972538  0.5845783937269168  0.9909176144724605  1.0000
  C   C20       1.0  0.08163535459044202  0.5147699850107752  0.06947645464288191  1.0000
  C   C21       1.0  0.14302791168363904  0.4347560651209283  0.0008579425210935013  1.0000
  C   C22       1.0  0.13913523729738075  0.42179315151491403  0.8515204969090268  1.0000
  C   C23       1.0  0.07345668604757888  0.4940230277537792  0.7714124730532111  1.0000
  C   C24       1.0  0.011814517164669304  0.5772283687979216  0.8385948023932258  1.0000
  C   C25       1.0  0.20469281547916018  0.33480407751716545  0.7808575454532156  1.0000
  N   N4        1.0  0.2759595411318645  0.2836151190627054  0.8490253946493844  1.0000
  C   C26       1.0  0.31742068760905306  0.21098824793653526  0.7496850129301573  1.0000
  C   C27       1.0  0.27109078418101284  0.2186941247612673  0.6240038772204262  1.0000
  N   N5        1.0  0.2001934472141511  0.2964976077252603  0.6437665760848762  1.0000
  H   H11       1.0  0.9233844933954124  0.7676388972461066  0.2575829459676853  1.0000
  H   H12       1.0  0.08544763482497747  0.5190191739149124  0.18564958576574297  1.0000
  H   H13       1.0  0.1930453854485954  0.38106638940318516  0.06563789822993238  1.0000
  H   H14       1.0  0.07138445964939644  0.4901438761637942  0.65529214342927  1.0000
  H   H15       1.0  0.87910630978857  0.6601116494461794  0.552565550010168  1.0000
  H   H16       1.0  0.37769872257503856  0.15542254575950062  0.7681361177723162  1.0000
  H   H17       1.0  0.15212197350362566  0.3188957197238085  0.5679479642603584  1.0000
  Zn  Zn1       1.0  0.9204060910309831  0.5819435680575495  0.4144485603922643  1.0000
  Zn  Zn2       1.0  0.10609669651163961  0.5798625933558668  0.41506320755410997  1.0000
  C   C28       1.0  0.012392444079562625  0.5728717935356751  0.6783534112239209  1.0000
  C   C29       1.0  0.01411235960492174  0.5889361637818004  0.15115850898503536  1.0000
  C   C30       1.0  0.011662139403371345  0.8443796885113768  0.4095677236377433  1.0000
  C   C31       1.0  0.01484261123735163  0.31742653597156156  0.4199442696071094  1.0000
  O   O4        1.0  0.08438501362086609  0.5896026597748103  0.20517005894870377  1.0000
  O   O5        1.0  0.083054671091715  0.5706248014139006  0.624807946430703  1.0000
  O   O6        1.0  0.082463985776908  0.7898708579257705  0.407761602062261  1.0000
  O   O7        1.0  0.08497563587695861  0.37035661522912755  0.4222162949110314  1.0000
  O   O8        1.0  0.9415270882985903  0.791449546896059  0.4072954728180056  1.0000
  O   O9        1.0  0.9421177632900846  0.5722052239304964  0.624341743933214  1.0000
  O   O10       1.0  0.9434481120819459  0.5911830470755888  0.20470212106383984  1.0000
  O   O11       1.0  0.9440387340296787  0.37193699127548935  0.42174846521494436  1.0000
