data_image0
_chemical_formula_structural       NC10NC2OCH8C6OCH8C7OIH5Zn2C4O8
_chemical_formula_sum              "N2 C31 O11 H21 I1 Zn2"
_cell_length_a       19.251394670931877
_cell_length_b       10.300308824427216
_cell_length_c       10.297413674417344
_cell_angle_alpha    85.55846743624085
_cell_angle_beta     89.9652894728998
_cell_angle_gamma    90.0830599437961

_space_group_name_H-M_alt    "P 1"
_space_group_IT_number       1

loop_
  _space_group_symop_operation_xyz
  'x, y, z'

loop_
  _atom_site_type_symbol
  _atom_site_label
  _atom_site_symmetry_multiplicity
  _atom_site_fract_x
  _atom_site_fract_y
  _atom_site_fract_z
  _atom_site_occupancy
  N   N1        1.0  0.6538430304870059  0.42332736834545126  0.5661188762423599  1.0000
  C   C1        1.0  0.5937649766319807  0.41975738808917623  0.5647614444124034  1.0000
  C   C2        1.0  0.5189874840895871  0.415328685449583  0.5631289586610687  1.0000
  C   C3        1.0  0.48560730169211525  0.3855797614314209  0.455469118369942  1.0000
  C   C4        1.0  0.40931171271236844  0.3789714689078363  0.45232260318515505  1.0000
  C   C5        1.0  0.3720787258969732  0.41555674891543914  0.5534460686757792  1.0000
  C   C6        1.0  0.29492876204059865  0.41678201196928083  0.5531574167426683  1.0000
  C   C7        1.0  0.2590688954788744  0.40268914110698795  0.6724489862692505  1.0000
  C   C8        1.0  0.18647160529690243  0.4043426470598883  0.675545374120077  1.0000
  C   C9        1.0  0.1486629298509926  0.42103887339576945  0.5594951022777493  1.0000
  C   C10       1.0  0.0739177589218554  0.42289981797030807  0.562796706522283  1.0000
  N   N2        1.0  0.013828678020136497  0.42439584069555036  0.5654508657328914  1.0000
  C   C11       1.0  0.1837358155814528  0.4365998719288792  0.44026050511358505  1.0000
  C   C12       1.0  0.25634304543421077  0.4348862044465666  0.43685491454018544  1.0000
  O   O1        1.0  0.40717528715583484  0.45505555612063997  0.6631690271445536  1.0000
  C   C13       1.0  0.4793603000459874  0.43037628821645585  0.6872495022655067  1.0000
  H   H1        1.0  0.5143524868735068  0.36696307092769853  0.3683064503388407  1.0000
  H   H2        1.0  0.3846762059757963  0.3456675108865994  0.36655383179173295  1.0000
  H   H3        1.0  0.2872028038455445  0.38916597539417364  0.763532270012572  1.0000
  H   H4        1.0  0.1598600080928176  0.3925969083405169  0.7684676898120548  1.0000
  H   H5        1.0  0.1549686673541589  0.4507568514560882  0.3498763397738285  1.0000
  H   H6        1.0  0.2818679798346542  0.4501858707907664  0.343315194455007  1.0000
  H   H7        1.0  0.5014361324691627  0.5117395413581021  0.7388175559134343  1.0000
  H   H8        1.0  0.48451536933815614  0.3391023049771587  0.751314185972905  1.0000
  C   C14       1.0  0.8338457147838233  0.04251855163794471  0.5657529825681282  1.0000
  C   C15       1.0  0.856578440027395  0.051594311901167034  0.4357017793354645  1.0000
  C   C16       1.0  0.8680170809249333  0.9385817018064205  0.37026293017276696  1.0000
  C   C17       1.0  0.8565516918747832  0.8164361665908086  0.43585520280427237  1.0000
  C   C18       1.0  0.8338326635124671  0.8051946337012719  0.5658279625499252  1.0000
  C   C19       1.0  0.8225978633627987  0.9188538137050772  0.6301007105154275  1.0000
  O   O2        1.0  0.8907083140172346  0.9433391926814824  0.24044963288348442  1.0000
  C   C20       1.0  0.9044933434061104  0.06026080132601819  0.16158789372073779  1.0000
  H   H9        1.0  0.8251843998482598  0.3664901450685729  0.6153064101238072  1.0000
  H   H10       1.0  0.8653055696789399  0.14647995725213137  0.38577460398290536  1.0000
  H   H11       1.0  0.8655398518747083  0.7301703909032441  0.3844352987756359  1.0000
  H   H12       1.0  0.8050686055250642  0.9110518263360979  0.7303835733203963  1.0000
  H   H13       1.0  0.8252350187400915  0.47353119785036574  0.6150154552687772  1.0000
  H   H14       1.0  0.856653638291003  0.12020192584525467  0.15054303426788662  1.0000
  H   H15       1.0  0.9215959439540391  0.03518746883955237  0.06374612074701114  1.0000
  H   H16       1.0  0.9465547106057367  0.1161755208986066  0.20569114055193682  1.0000
  C   C21       1.0  0.833784903150011  0.4239088415360046  0.18433815676370635  1.0000
  C   C22       1.0  0.7688712982353241  0.4862657987019259  0.17839368367452857  1.0000
  C   C23       1.0  0.7359027069203424  0.5179358171167848  0.0582592734185492  1.0000
  C   C24       1.0  0.7689964473461172  0.4861454392500177  0.94320560620432  1.0000
  C   C25       1.0  0.833893474310195  0.42380436008197875  0.9472428499596892  1.0000
  C   C26       1.0  0.865890164232278  0.39306795483191403  0.0682704511161434  1.0000
  C   C27       1.0  0.6672587357915967  0.5838760903553919  0.05451198244750155  1.0000
  O   O3        1.0  0.6385295348946535  0.6114731302825144  0.15883198293651635  1.0000
  I   I1        1.0  0.6130543544055201  0.6359466172741515  0.8791670728991164  1.0000
  H   H17       1.0  0.9563470597539899  0.3061728162748383  0.4027758961105457  1.0000
  H   H18       1.0  0.7439258781794021  0.5102288025937365  0.2677543274295564  1.0000
  H   H19       1.0  0.7445494644280666  0.5096293092486814  0.8499466421213886  1.0000
  H   H20       1.0  0.9159283903764962  0.34500053968787125  0.07204575638195343  1.0000
  H   H21       1.0  0.8590171764959988  0.39967052698500916  0.6212497439342989  1.0000
  Zn  Zn1       1.0  0.7577271178081408  0.42363222500428205  0.565933601994242  1.0000
  Zn  Zn2       1.0  0.9099445947574927  0.42408034339018624  0.5656467728671051  1.0000
  C   C28       1.0  0.8338714786820925  0.4186507859163044  0.8030369830274184  1.0000
  C   C29       1.0  0.8338018960837271  0.4290634258625754  0.3285435163572086  1.0000
  C   C30       1.0  0.8338308065363921  0.6610333398578383  0.5606375047182408  1.0000
  C   C31       1.0  0.8338425163248253  0.1866793115619052  0.570943063864618  1.0000
  O   O4        1.0  0.8915733383788036  0.4309577446852464  0.37683130165301004  1.0000
  O   O5        1.0  0.8916295792824842  0.4170955989749407  0.7545311270367661  1.0000
  O   O6        1.0  0.8915959574928604  0.612822574151067  0.5587918348857266  1.0000
  O   O7        1.0  0.8916069082128957  0.23523077865913655  0.5725704965068741  1.0000
  O   O8        1.0  0.7760647524083827  0.6124817895838248  0.5590098784455213  1.0000
  O   O9        1.0  0.7760983741582533  0.416756374615328  0.7547491014893776  1.0000
  O   O10       1.0  0.7760421330793189  0.4306184752867359  0.3770477143589075  1.0000
  O   O11       1.0  0.7760757029245874  0.23489149995910316  0.5727870066009958  1.0000
