data_image0
_chemical_formula_structural       NC9NC3OH6C8H10C7OH5Zn2C4O8
_chemical_formula_sum              "N2 C31 O10 H21 Zn2"
_cell_length_a       15.78231758774541
_cell_length_b       9.275653711864159
_cell_length_c       9.274081674992354
_cell_angle_alpha    86.25045921742756
_cell_angle_beta     89.75780300142802
_cell_angle_gamma    89.08352321082864

_space_group_name_H-M_alt    "P 1"
_space_group_IT_number       1

loop_
  _space_group_symop_operation_xyz
  'x, y, z'

loop_
  _atom_site_type_symbol
  _atom_site_label
  _atom_site_symmetry_multiplicity
  _atom_site_fract_x
  _atom_site_fract_y
  _atom_site_fract_z
  _atom_site_occupancy
  N   N1        1.0  0.7944701905914746  0.5548987632175968  0.41774745943061875  1.0000
  C   C1        1.0  0.7463602303902251  0.46402463879360084  0.44418403960644876  1.0000
  C   C2        1.0  0.686629802102735  0.35122776491809343  0.47699865046086987  1.0000
  C   C3        1.0  0.7069507945597525  0.20953592404683902  0.518130953917832  1.0000
  C   C4        1.0  0.6305390199539943  0.14086725330641459  0.5381480216450846  1.0000
  C   C5        1.0  0.568270915064282  0.24573584289819372  0.507751225939013  1.0000
  C   C6        1.0  0.47526970714672684  0.22634815679819842  0.5134729790062071  1.0000
  C   C7        1.0  0.42097264496876347  0.34522820493889617  0.47883123444669323  1.0000
  C   C8        1.0  0.33283974410694045  0.3293308384155571  0.48353088235018604  1.0000
  C   C9        1.0  0.2778301563295549  0.45166968114936124  0.44787206566035614  1.0000
  N   N2        1.0  0.23361542069922064  0.5500143140353178  0.41920554862976667  1.0000
  C   C10       1.0  0.29832343198670747  0.19437650770053527  0.5229260893589376  1.0000
  C   C11       1.0  0.35168840395530776  0.075742284083782  0.55750104896789  1.0000
  C   C12       1.0  0.43963766890028266  0.09120291178937623  0.5529290962716118  1.0000
  O   O1        1.0  0.6041520141476283  0.37001778310198125  0.47161890333917955  1.0000
  H   H1        1.0  0.7696334324909703  0.16175184607628457  0.5319458048572543  1.0000
  H   H2        1.0  0.6223314822134335  0.02795687738849817  0.570942172711252  1.0000
  H   H3        1.0  0.44709071166200737  0.4502465566088818  0.4481695376157411  1.0000
  H   H4        1.0  0.23026947178746462  0.18091224325913433  0.5269040910852947  1.0000
  H   H5        1.0  0.32483668781891645  0.9714418965838818  0.5879535966695892  1.0000
  H   H6        1.0  0.4791603451640156  0.997236334176117  0.580324055621239  1.0000
  C   C13       1.0  0.016429687692045333  0.12902885306762932  0.417139316615089  1.0000
  C   C14       1.0  0.9969838029277776  0.2115032135125403  0.28852145467786583  1.0000
  C   C15       1.0  0.9698786023556152  0.14547961635168427  0.16545661808650536  1.0000
  C   C16       1.0  0.963483076189169  0.9949981574975514  0.17004105021131727  1.0000
  C   C17       1.0  0.9838529149650287  0.9113012508580675  0.2958841351521184  1.0000
  C   C18       1.0  0.011664019845246893  0.975873135479745  0.4198261002843878  1.0000
  C   C19       1.0  0.9505026176566261  0.2352569261852484  0.028052837764118484  1.0000
  C   C20       1.0  0.03008523638836413  0.25538245726444364  0.935559877999784  1.0000
  H   H7        1.0  0.09266392972595766  0.39450876096653836  0.6171793225522291  1.0000
  H   H8        1.0  0.0010543670150797695  0.32824194964874653  0.2846516400875162  1.0000
  H   H9        1.0  0.9435162861906551  0.9421351714021289  0.07542802386199576  1.0000
  H   H10       1.0  0.979937430877674  0.7948658266165134  0.2949912797050227  1.0000
  H   H11       1.0  0.018822617587560094  0.678808736285839  0.6575446941247887  1.0000
  H   H12       1.0  0.9013184449500142  0.18236391933002258  0.9652109424417317  1.0000
  H   H13       1.0  0.9246989257871293  0.34293545360198907  0.05351556308097429  1.0000
  H   H14       1.0  0.07926180367125357  0.31156331812686067  0.995232352190133  1.0000
  H   H15       1.0  0.05562120938663992  0.1489270916853378  0.9059847463103591  1.0000
  H   H16       1.0  0.014449106530947548  0.3217171032011483  0.8349047616701434  1.0000
  C   C21       1.0  0.015498185390784944  0.5486552632138133  0.9952057499014112  1.0000
  C   C22       1.0  0.08396375878420237  0.6106431590513799  0.06415942075864246  1.0000
  C   C23       1.0  0.14757085981720885  0.6833217995434904  0.9841218795268749  1.0000
  C   C24       1.0  0.14269299894600573  0.6944037702357111  0.8330181784282167  1.0000
  C   C25       1.0  0.07600770179880272  0.6315739739182489  0.7628649674066503  1.0000
  C   C26       1.0  0.012595535418370652  0.5562467486777987  0.8417596527228546  1.0000
  C   C27       1.0  0.21799607998339032  0.7481580901530263  0.060010067586755866  1.0000
  O   O2        1.0  0.2759335187151602  0.8146883261012092  0.9910771032796037  1.0000
  H   H17       1.0  0.8152553188735219  0.45722208632133005  0.10561075796801014  1.0000
  H   H18       1.0  0.19089164592033814  0.7504950725846942  0.7687510793678265  1.0000
  H   H19       1.0  0.07517981025916734  0.639032698060185  0.6458122354024504  1.0000
  H   H20       1.0  0.8791500922826706  0.48874822608426477  0.5660120628947101  1.0000
  H   H21       1.0  0.22051798781567122  0.7389638937867322  0.1768963752556263  1.0000
  Zn  Zn1       1.0  0.9211980074542336  0.5534854397271627  0.4181765371694066  1.0000
  Zn  Zn2       1.0  0.10688760117002388  0.5514159747699825  0.41878821648341313  1.0000
  C   C28       1.0  0.013174628783459532  0.5490675747472789  0.6817246413695033  1.0000
  C   C29       1.0  0.014912996841917263  0.5558356377527014  0.15524026620864367  1.0000
  C   C30       1.0  0.01258017211922179  0.8157501085329285  0.4135743861183627  1.0000
  C   C31       1.0  0.015507399628831518  0.2891513729837798  0.4233905926018427  1.0000
  O   O3        1.0  0.08518487070540787  0.5574537952948366  0.20918142096824063  1.0000
  O   O4        1.0  0.08383686752970543  0.5458776496959774  0.628247318677321  1.0000
  O   O5        1.0  0.08335588117094138  0.7612271924160378  0.411714091982035  1.0000
  O   O6        1.0  0.08566579401341157  0.3421042626265616  0.4257145394125039  1.0000
  O   O7        1.0  0.9424197512441181  0.7627971525782928  0.4112502140240031  1.0000
  O   O8        1.0  0.9429007281134775  0.5474493415492132  0.627783369360918  1.0000
  O   O9        1.0  0.9442487375703299  0.5590254213599275  0.20871573851193692  1.0000
  O   O10       1.0  0.9447296605623661  0.3436758793475762  0.4252489649909107  1.0000
