data_image0
_chemical_formula_structural       NC9NC3OH6C6NCOCH9C7F3H4Zn2C4O8
_chemical_formula_sum              "N3 C31 O10 H19 F3 Zn2"
_cell_length_a       15.78231758774541
_cell_length_b       10.300268703208218
_cell_length_c       9.272721663655245
_cell_angle_alpha    85.87639938124998
_cell_angle_beta     90.60221336655935
_cell_angle_gamma    89.61162997741629

_space_group_name_H-M_alt    "P 1"
_space_group_IT_number       1

loop_
  _space_group_symop_operation_xyz
  'x, y, z'

loop_
  _atom_site_type_symbol
  _atom_site_label
  _atom_site_symmetry_multiplicity
  _atom_site_fract_x
  _atom_site_fract_y
  _atom_site_fract_z
  _atom_site_occupancy
  N   N1        1.0  0.7891340401728019  0.405381837670191  0.4121078833550349  1.0000
  C   C1        1.0  0.7407630213447239  0.32345428575051605  0.4388450689474923  1.0000
  C   C2        1.0  0.6807085592378727  0.22176228144110288  0.4720328043523365  1.0000
  C   C3        1.0  0.7006217440783873  0.09402030273349338  0.5136337761909875  1.0000
  C   C4        1.0  0.6240130518144882  0.03211194661997396  0.5338780129304332  1.0000
  C   C5        1.0  0.5620471709498397  0.12665585635731924  0.5031343677919462  1.0000
  C   C6        1.0  0.46899097499928927  0.10917663382812726  0.5089202898298204  1.0000
  C   C7        1.0  0.41503492363561506  0.21635310406545427  0.4738852727700323  1.0000
  C   C8        1.0  0.3268570032419152  0.20202059977169728  0.4786375409537207  1.0000
  C   C9        1.0  0.2721982683153841  0.3123153799498055  0.4425740055388645  1.0000
  N   N2        1.0  0.22826556064373113  0.40097814621610356  0.41358214628252354  1.0000
  C   C10       1.0  0.2919541729035098  0.08035211920237507  0.518479226999685  1.0000
  C   C11       1.0  0.34497888127774756  0.9733972571117736  0.5534466480143097  1.0000
  C   C12       1.0  0.43297191668011736  0.9873360175728553  0.5488235200218214  1.0000
  O   O1        1.0  0.5982855010944129  0.23870214635129794  0.4665909391232414  1.0000
  H   H1        1.0  0.7631663622751621  0.05094084699162193  0.5276066557531567  1.0000
  H   H2        1.0  0.6154806902119567  0.9303177832066439  0.5670456405245168  1.0000
  H   H3        1.0  0.4414537243188223  0.3110327297425366  0.44287613392958014  1.0000
  H   H4        1.0  0.2238620629473768  0.06821322127728635  0.5225017944017603  1.0000
  H   H5        1.0  0.31782849122668666  0.8793649128068265  0.5842442626246216  1.0000
  H   H6        1.0  0.47222516009820065  0.9026202797545314  0.5765293402021165  1.0000
  C   C13       1.0  0.008789972258021805  0.021831493864240322  0.4128538287128123  1.0000
  C   C14       1.0  0.022281589293528414  0.030336860658945808  0.2630085306170131  1.0000
  C   C15       1.0  0.030237526715300327  0.9173122617746441  0.1878132944187969  1.0000
  C   C16       1.0  0.02209009249824744  0.7951794410560855  0.26304386032406235  1.0000
  C   C17       1.0  0.008617766785587792  0.7845185183189897  0.4128486636084847  1.0000
  C   C18       1.0  0.00235828086765988  0.8984398647247985  0.4870514476231125  1.0000
  N   N3        1.0  0.04272933550197777  0.9244414536803621  0.03403131364756073  1.0000
  C   C19       1.0  0.09206307885085009  0.02266907986187982  0.9567170837180937  1.0000
  O   O2        1.0  0.14026013246576324  0.09551232017210176  0.02346512282761659  1.0000
  C   C20       1.0  0.09124308401677061  0.03275997954632625  0.7951851082979116  1.0000
  H   H7        1.0  0.0024265573719919353  0.3460571394114451  0.46948231474307445  1.0000
  H   H8        1.0  0.024922033511239658  0.12486789763971418  0.20435680757702546  1.0000
  H   H9        1.0  0.027037584892509056  0.7084740578468195  0.2040360756688273  1.0000
  H   H10       1.0  0.9919757259766983  0.8910704141305663  0.6026289945551595  1.0000
  H   H11       1.0  0.0022581244322053004  0.453105815796126  0.469268372970513  1.0000
  H   H12       1.0  0.019083267141107422  0.8489664209452451  0.9760147205588687  1.0000
  H   H13       1.0  0.02617537388894718  0.016174123725509967  0.7540858304607481  1.0000
  H   H14       1.0  0.11202768857602402  0.13100238757867033  0.7532093116643304  1.0000
  H   H15       1.0  0.13476850749293823  0.9584005897737415  0.7556379505700601  1.0000
  C   C21       1.0  0.006462412265506147  0.40109120234381956  0.9894005163670764  1.0000
  C   C22       1.0  0.04254940103336691  0.2945101644328747  0.07224464155579913  1.0000
  C   C23       1.0  0.08606135295111222  0.19557910327314842  0.006486304130314259  1.0000
  C   C24       1.0  0.0908905692809549  0.2015106563284783  0.8553526620303367  1.0000
  C   C25       1.0  0.054302010091213264  0.3053929869537573  0.7715385672060351  1.0000
  C   C26       1.0  0.01094536111676625  0.4052588067045617  0.8363019692197899  1.0000
  C   C27       1.0  0.12235075263896039  0.08040766147633027  0.0969561771598415  1.0000
  F   F1        1.0  0.15087810118034994  0.11786420537707153  0.22928467228098356  1.0000
  F   F2        1.0  0.18990567352096788  0.02601585889888435  0.028063377550335167  1.0000
  F   F3        1.0  0.06016313091923121  0.987556880365672  0.11978366987617184  1.0000
  H   H16       1.0  0.9526816405459553  0.7108672502253992  0.06543750363635459  1.0000
  H   H17       1.0  0.03831950314053722  0.28993900022947977  0.18907610217225645  1.0000
  H   H18       1.0  0.05793286339495472  0.3057719106960357  0.6548961367083361  1.0000
  H   H19       1.0  0.8588371188142754  0.6258155533618066  0.7144991533261811  1.0000
  Zn  Zn1       1.0  0.9158579523980529  0.4041075995946397  0.41254164414009087  1.0000
  Zn  Zn2       1.0  0.10154168471529185  0.4022418433962076  0.4131601733366943  1.0000
  C   C28       1.0  0.010097248144055104  0.39929764172903637  0.6762195064688838  1.0000
  C   C29       1.0  0.007304417009117878  0.4070534201161185  0.14948245928278392  1.0000
  C   C30       1.0  0.008615550971041271  0.6403261840661889  0.4071034161876743  1.0000
  C   C31       1.0  0.008786051580445433  0.16602331857491318  0.4185986262421739  1.0000
  O   O3        1.0  0.07805301148744953  0.40834068467418994  0.2034421503367756  1.0000
  O   O4        1.0  0.08027830808933367  0.3965933296742905  0.6227288496721859  1.0000
  O   O5        1.0  0.07908087690475576  0.5912269427567312  0.405415699555705  1.0000
  O   O6        1.0  0.0792503787363385  0.21370708098607683  0.4207551921227406  1.0000
  O   O7        1.0  0.9381491950122212  0.5926423626428379  0.4049466251353868  1.0000
  O   O8        1.0  0.9393466254336998  0.3980103094025169  0.6222596983550286  1.0000
  O   O9        1.0  0.9371213197213846  0.4097576106168453  0.2029712653280189  1.0000
  O   O10       1.0  0.938318687541177  0.21512399817247235  0.42028441522584137  1.0000
