data_image0
_chemical_formula_structural       NC5NC3F3CH3C6BrH5C9H10Zn2C4O8
_chemical_formula_sum              "N2 C28 F3 H18 Br1 Zn2 O8"
_cell_length_a       13.85151926108384
_cell_length_b       9.276564384272257
_cell_length_c       10.297187173949778
_cell_angle_alpha    85.51933545767109
_cell_angle_beta     89.97408904731064
_cell_angle_gamma    90.58593481197379

_space_group_name_H-M_alt    "P 1"
_space_group_IT_number       1

loop_
  _space_group_symop_operation_xyz
  'x, y, z'

loop_
  _atom_site_type_symbol
  _atom_site_label
  _atom_site_symmetry_multiplicity
  _atom_site_fract_x
  _atom_site_fract_y
  _atom_site_fract_z
  _atom_site_occupancy
  N   N1        1.0  0.9203716286062629  0.5780335065520299  0.5659729842718229  1.0000
  C   C1        1.0  0.8479610581917933  0.5689616093742547  0.622267567779782  1.0000
  C   C2        1.0  0.7578766084144508  0.5576749252531967  0.6923060829651271  1.0000
  C   C3        1.0  0.6704365191191766  0.5668867104769684  0.6242449600085469  1.0000
  C   C4        1.0  0.5828246188266051  0.5576749121055804  0.692306064900741  1.0000
  C   C5        1.0  0.4929418061547012  0.5689616255349161  0.6222676525301761  1.0000
  N   N2        1.0  0.42069344270165504  0.5780334686776254  0.5659730793225672  1.0000
  C   C6        1.0  0.5826366572083775  0.5382534156472913  0.8285876842938433  1.0000
  C   C7        1.0  0.6700635934929242  0.5258520992258673  0.8977885001792199  1.0000
  C   C8        1.0  0.6699077009072767  0.5102955907590121  0.04469604237876623  1.0000
  F   F1        1.0  0.7503141378661502  0.4354900069510861  0.09125053367877556  1.0000
  F   F2        1.0  0.5884453229658703  0.43548997636496484  0.09125062317676748  1.0000
  F   F3        1.0  0.6708222159401916  0.6461110987378331  0.0911963135271311  1.0000
  C   C9        1.0  0.7577069833910123  0.5382533203998345  0.8285877020427805  1.0000
  H   H1        1.0  0.6705760584998957  0.5820837161792596  0.5187307748317427  1.0000
  H   H2        1.0  0.514460532552019  0.5330826887405137  0.8805410024193837  1.0000
  H   H3        1.0  0.8257772855295805  0.5330826078394562  0.8805409654995713  1.0000
  C   C10       1.0  0.16762838721723128  0.1545525833639927  0.5663051811069424  1.0000
  C   C11       1.0  0.1552961789712537  0.23803565096426516  0.44758190323358904  1.0000
  C   C12       1.0  0.15194825644153953  0.17303071236113565  0.32996756089904533  1.0000
  C   C13       1.0  0.16091183757300453  0.023623398093256528  0.3288432426996953  1.0000
  C   C14       1.0  0.1715438940133434  0.938446756161531  0.44577122399707775  1.0000
  C   C15       1.0  0.17344583479045889  0.0015032965865722273  0.5656520360207253  1.0000
  Br  Br1       1.0  0.1570417508902491  0.9352435735733281  0.16745581543632973  1.0000
  H   H4        1.0  0.13924822134628512  0.41713383813455523  0.7774887796430308  1.0000
  H   H5        1.0  0.1505326739013233  0.35469173978236435  0.44535808256236786  1.0000
  H   H6        1.0  0.1433030487008169  0.23923858278704355  0.23948588008516003  1.0000
  H   H7        1.0  0.17601166724571712  0.8222063910617445  0.4429706417657986  1.0000
  H   H8        1.0  0.22663500078332272  0.7035982761752655  0.7679646955376962  1.0000
  C   C16       1.0  0.1706643806751762  0.577975826366222  0.18452551724355715  1.0000
  C   C17       1.0  0.07310030804439839  0.617585657246037  0.18101305383139968  1.0000
  C   C18       1.0  0.023115356356097308  0.6378786992315266  0.06259711171296757  1.0000
  C   C19       1.0  0.0727220979553227  0.6177386512267324  0.9457902107348868  1.0000
  C   C20       1.0  0.17040984665841438  0.57808010986825  0.9474317464942315  1.0000
  C   C21       1.0  0.21874304115075519  0.5584562615554507  0.0671881757650521  1.0000
  C   C22       1.0  0.9175927777165682  0.6807192672516502  0.06823030171086386  1.0000
  C   C23       1.0  0.8496064035058761  0.6227157493797939  0.9680031780990306  1.0000
  C   C24       1.0  0.8794069018106738  0.7818113724325818  0.9567809986544726  1.0000
  H   H9        1.0  0.20826163559567523  0.5627259752598339  0.5134163823818054  1.0000
  H   H10       1.0  0.03543529986644001  0.6328775864731568  0.27107940817362525  1.0000
  H   H11       1.0  0.03610222138815388  0.6326025483680731  0.8531716451250748  1.0000
  H   H12       1.0  0.2940155781138809  0.5278957276068832  0.06917076838180902  1.0000
  H   H13       1.0  0.3549107085344716  0.5031578391844993  0.7433170109703116  1.0000
  H   H14       1.0  0.8836762512339559  0.6944901695817978  0.16429696167290553  1.0000
  H   H15       1.0  0.8818538213558254  0.5576262635839391  0.8935283909695856  1.0000
  H   H16       1.0  0.7744394834851229  0.6032030280012006  0.003136796236672175  1.0000
  H   H17       1.0  0.929756965120587  0.8133635978538779  0.8754902796816149  1.0000
  H   H18       1.0  0.821656202801979  0.8552834722038932  0.9853533295916126  1.0000
  Zn  Zn1       1.0  0.06475366784453329  0.5780296468038786  0.5659805018564423  1.0000
  Zn  Zn2       1.0  0.2763113016810826  0.5780255673898884  0.5659761620237725  1.0000
  C   C25       1.0  0.1704163356172359  0.5723154019230225  0.803230560587678  1.0000
  C   C26       1.0  0.170650956566629  0.5837416318049173  0.32872622933663664  1.0000
  C   C27       1.0  0.17234296775147362  0.84141089846212  0.5605992152931714  1.0000
  C   C28       1.0  0.1687242403187826  0.3146444026804014  0.5713576452225821  1.0000
  O   O1        1.0  0.25093142759877907  0.5856688492940303  0.3771196635123748  1.0000
  O   O2        1.0  0.2507032062088612  0.5703840002953295  0.7548334594896957  1.0000
  O   O3        1.0  0.2522579032917278  0.7876820171331321  0.558906930373291  1.0000
  O   O4        1.0  0.24937665842897716  0.36837084276038845  0.5730460952261397  1.0000
  O   O5        1.0  0.09168823890241384  0.78768437143634  0.5589105686487224  1.0000
  O   O6        1.0  0.09013355373893207  0.5703880871869167  0.7548370271683358  1.0000
  O   O7        1.0  0.0903617753689605  0.585672885718919  0.3771216694843538  1.0000
  O   O8        1.0  0.08880700609186912  0.36837486888407733  0.5730481985954063  1.0000
