data_image0
_chemical_formula_structural       NC9NC3SH6C7F3H5C7ONH7Zn2C4O8
_chemical_formula_sum              "N3 C30 S1 H18 F3 O9 Zn2"
_cell_length_a       16.77567553997237
_cell_length_b       9.272718291674593
_cell_length_c       10.297855452804892
_cell_angle_alpha    85.97219489806729
_cell_angle_beta     90.3897855956152
_cell_angle_gamma    90.46558260785916

_space_group_name_H-M_alt    "P 1"
_space_group_IT_number       1

loop_
  _space_group_symop_operation_xyz
  'x, y, z'

loop_
  _atom_site_type_symbol
  _atom_site_label
  _atom_site_symmetry_multiplicity
  _atom_site_fract_x
  _atom_site_fract_y
  _atom_site_fract_z
  _atom_site_occupancy
  N   N1        1.0  0.7442599934548291  0.5988111167733723  0.5850711250704036  1.0000
  C   C1        1.0  0.6892848215935343  0.6535550367900411  0.6270559749029037  1.0000
  C   C2        1.0  0.6210598489373966  0.7214886222173176  0.6791559651820037  1.0000
  C   C3        1.0  0.6227894194222618  0.8192441724041275  0.7749023201445153  1.0000
  C   C4        1.0  0.5469531753679047  0.8674922546235666  0.8067525360585543  1.0000
  C   C5        1.0  0.48519894362965094  0.8075196938185292  0.7357109328706533  1.0000
  C   C6        1.0  0.3985894352335072  0.8364496893350734  0.7467632662315229  1.0000
  C   C7        1.0  0.3421370924604979  0.7481200638611105  0.687856815507156  1.0000
  C   C8        1.0  0.2603864624633379  0.7748186593575084  0.6978369675927223  1.0000
  C   C9        1.0  0.2032788326872086  0.6835271736852007  0.6375145221402445  1.0000
  N   N2        1.0  0.15738126776977363  0.6101419014904086  0.5890241858541428  1.0000
  C   C10       1.0  0.2342569369851159  0.8901949740962164  0.7665648103818774  1.0000
  C   C11       1.0  0.2896169371347451  0.9787010181224576  0.8250107761991917  1.0000
  C   C12       1.0  0.3712082472329981  0.9524055616104438  0.8153280542373984  1.0000
  S   S1        1.0  0.526252737349308  0.6942270421128216  0.6338003116008353  1.0000
  H   H1        1.0  0.6770451092644933  0.8545981357807007  0.8209236826069737  1.0000
  H   H2        1.0  0.5383757707930881  0.9428438210584317  0.8807699969847352  1.0000
  H   H3        1.0  0.36130608834693373  0.6578901929471576  0.6347765152173768  1.0000
  H   H4        1.0  0.171184055858916  0.9117930159163258  0.7748030864503845  1.0000
  H   H5        1.0  0.2692700819444611  0.06825215125401263  0.8777688636465337  1.0000
  H   H6        1.0  0.412352822887683  0.02414703257151894  0.8605899474865618  1.0000
  C   C13       1.0  0.9525606754146118  0.1811425019624453  0.5841950432599649  1.0000
  C   C14       1.0  0.9039769894024716  0.26115192774281937  0.4939656496636017  1.0000
  C   C15       1.0  0.8497521054708943  0.19215897076574517  0.4139310046438241  1.0000
  C   C16       1.0  0.8462237428473012  0.04077104382648321  0.4214910655329556  1.0000
  C   C17       1.0  0.8948672441799229  0.9598051112533561  0.5089103506143148  1.0000
  C   C18       1.0  0.9490882440438592  0.02779964730730787  0.5899115718924673  1.0000
  C   C19       1.0  0.7997191356121033  0.2797286743270162  0.31542432935446363  1.0000
  F   F1        1.0  0.7792322846296622  0.4105705885107358  0.36243437939314155  1.0000
  F   F2        1.0  0.7301375143893197  0.20642866947563324  0.2876211522640262  1.0000
  F   F3        1.0  0.8427303628427879  0.3057276761776109  0.20205797675462556  1.0000
  H   H7        1.0  0.04718773597572867  0.26233946619991344  0.8654194507524446  1.0000
  H   H8        1.0  0.9071593382784876  0.37821001575739915  0.48795065815073657  1.0000
  H   H9        1.0  0.8063844457357494  0.984606153730104  0.35864871545265364  1.0000
  H   H10       1.0  0.8916136298771704  0.8429462130373437  0.5106268129618075  1.0000
  H   H11       1.0  0.12020117478664029  0.9165280244789104  0.7478826044449223  1.0000
  C   C20       1.0  0.9508551494116378  0.6046152407172727  0.2056125427122304  1.0000
  C   C21       1.0  0.8691743009381611  0.6371328008525068  0.20167784742340447  1.0000
  C   C22       1.0  0.8275750878387844  0.6523793791431268  0.08267430904360329  1.0000
  C   C23       1.0  0.869078705467698  0.6368058509237957  0.9664418178330156  1.0000
  C   C24       1.0  0.9507937749826236  0.6043268718573849  0.9684940140473708  1.0000
  C   C25       1.0  0.9911002687799955  0.5881102709456121  0.08853353947942466  1.0000
  C   C26       1.0  0.7413622860576028  0.6870683822753534  0.08109699489824253  1.0000
  O   O1        1.0  0.7116119315571914  0.7477720926791427  0.1750395800476101  1.0000
  N   N3        1.0  0.6905173272041936  0.6515815677716124  0.9757549339971003  1.0000
  H   H12       1.0  0.10529253050364741  0.543675468218804  0.42028509317310947  1.0000
  H   H13       1.0  0.8376023808764529  0.6494115406657329  0.291622701516364  1.0000
  H   H14       1.0  0.8383898162785166  0.6525887690060452  0.8738698316611071  1.0000
  H   H15       1.0  0.05405201974613605  0.563045021646484  0.09081261688601683  1.0000
  H   H16       1.0  0.10552646905115906  0.5452196032841523  0.7649564221235543  1.0000
  H   H17       1.0  0.6308632515229952  0.6829701000526809  0.974321961199948  1.0000
  H   H18       1.0  0.7097329403091055  0.5863341225107778  0.903804520408858  1.0000
  Zn  Zn1       1.0  0.8634778873668607  0.602077084757938  0.5862193760232153  1.0000
  Zn  Zn2       1.0  0.03816341626677566  0.606864169337703  0.5878865226224167  1.0000
  C   C27       1.0  0.9508271575844023  0.5986383849339965  0.8242543013686096  1.0000
  C   C28       1.0  0.9508160461394948  0.6103047403188371  0.3498517552537844  1.0000
  C   C29       1.0  0.9497409319507398  0.867765274150087  0.5836548068728474  1.0000
  C   C30       1.0  0.951902219263105  0.3411761174473914  0.590451306738192  1.0000
  O   O2        1.0  0.017095196354406816  0.6140245728190679  0.3988923836066405  1.0000
  O   O3        1.0  0.01713028634691782  0.5985507514759894  0.7764786174501364  1.0000
  O   O4        1.0  0.01625225165068378  0.8158740930919409  0.5821928249552388  1.0000
  O   O5        1.0  0.017973171407841944  0.39670123991892003  0.593178078209274  1.0000
  O   O6        1.0  0.883668072614191  0.812240012544696  0.5809278198606207  1.0000
  O   O7        1.0  0.8845461002088735  0.594918402952074  0.7752135547911355  1.0000
  O   O8        1.0  0.8845110106010347  0.6103921746509791  0.3976257589141921  1.0000
  O   O9        1.0  0.8853889856856649  0.3930688314030022  0.5919115508333528  1.0000
