data_image0
_chemical_formula_structural       NC9NC3OCH8C13OH12C12NCOH11Zn2C4O8
_chemical_formula_sum              "N3 C43 O11 H31 Zn2"
_cell_length_a       17.728193572023454
_cell_length_b       10.299150109392551
_cell_length_c       10.299148425239203
_cell_angle_alpha    85.51660845067315
_cell_angle_beta     90.68912747422073
_cell_angle_gamma    88.43520969070386

_space_group_name_H-M_alt    "P 1"
_space_group_IT_number       1

loop_
  _space_group_symop_operation_xyz
  'x, y, z'

loop_
  _atom_site_type_symbol
  _atom_site_label
  _atom_site_symmetry_multiplicity
  _atom_site_fract_x
  _atom_site_fract_y
  _atom_site_fract_z
  _atom_site_occupancy
  N   N1        1.0  0.7105527196079355  0.3876306913734906  0.584598983312671  1.0000
  C   C1        1.0  0.6499425604088808  0.35019402882723316  0.5976181630388611  1.0000
  C   C2        1.0  0.5744912410890635  0.303655253411685  0.6138216809938288  1.0000
  C   C3        1.0  0.5626055540822462  0.17560222360075373  0.6232871038857599  1.0000
  C   C4        1.0  0.48589828958196424  0.12614021835814015  0.6382560342058416  1.0000
  C   C5        1.0  0.42773843960603036  0.20880986868646254  0.655698582991677  1.0000
  C   C6        1.0  0.3496914048632874  0.16374894058909106  0.677450058009573  1.0000
  C   C7        1.0  0.2883459318304673  0.2492398430770555  0.6419561481075853  1.0000
  C   C8        1.0  0.21407244068938408  0.20992528373096553  0.6621193131900043  1.0000
  C   C9        1.0  0.15174824198904174  0.29795408448607996  0.6245500200265355  1.0000
  N   N2        1.0  0.1016529961095309  0.36872071127677686  0.5943478597456382  1.0000
  C   C10       1.0  0.20051281701532203  0.08499951657779525  0.7188305946505891  1.0000
  C   C11       1.0  0.2609593796492383  0.9998256009093504  0.7557330620967435  1.0000
  C   C12       1.0  0.3351292715432507  0.03865043694591042  0.735699660237402  1.0000
  O   O1        1.0  0.4410803788012325  0.3426076432125651  0.654356800760189  1.0000
  C   C13       1.0  0.5088057034529518  0.4000134127500357  0.6057238713496997  1.0000
  H   H1        1.0  0.6095405675849771  0.1061363557652708  0.6212097655338715  1.0000
  H   H2        1.0  0.47825751818966744  0.022482838685593757  0.6363091220466444  1.0000
  H   H3        1.0  0.2982328623518406  0.34609233577528214  0.5974928530870696  1.0000
  H   H4        1.0  0.1432993109239336  0.053701716189526134  0.7349827381143796  1.0000
  H   H5        1.0  0.2503356101444345  0.9036318374373787  0.8006572997911372  1.0000
  H   H6        1.0  0.3806629148964241  0.9714004108761963  0.7681454527789602  1.0000
  H   H7        1.0  0.4993474917290783  0.43598966014152724  0.5021776173683354  1.0000
  H   H8        1.0  0.5216701544484305  0.4843828002815118  0.6622812151453468  1.0000
  C   C14       1.0  0.9061775891192747  0.9967723895921639  0.5896194223221953  1.0000
  C   C15       1.0  0.9047671592364263  0.9849788686088049  0.7264042973310745  1.0000
  C   C16       1.0  0.9039864174084704  0.8618679870204272  0.7954917841999718  1.0000
  C   C17       1.0  0.9046217146308961  0.7497307090283841  0.7260372521644485  1.0000
  C   C18       1.0  0.9060353788102444  0.759568631109238  0.5893388626226925  1.0000
  C   C19       1.0  0.9068071302651097  0.8835498495399746  0.5219288542412981  1.0000
  C   C20       1.0  0.9024877761040273  0.850373884809968  0.9401043805023767  1.0000
  C   C21       1.0  0.8560738067734011  0.7597091846629938  0.0069734652504238595  1.0000
  C   C22       1.0  0.8546385848553265  0.748975864133125  0.14305315062555013  1.0000
  C   C23       1.0  0.9000863569436165  0.8277248932393277  0.2147361076283264  1.0000
  C   C24       1.0  0.9457782371208638  0.9193778712464606  0.1484916388072216  1.0000
  C   C25       1.0  0.9472309766605564  0.9302861419403134  0.012412101357397681  1.0000
  C   C26       1.0  0.8969573679221596  0.8186222913473101  0.3607543171805221  1.0000
  O   O2        1.0  0.8405473379853935  0.9045082406738353  0.3995915888742057  1.0000
  H   H9        1.0  0.9083495589766802  0.2263497545701112  0.3314193396614067  1.0000
  H   H10       1.0  0.9032263873342405  0.07180312237354068  0.7793780729689771  1.0000
  H   H11       1.0  0.905044417960389  0.6545641265539726  0.7788848963924278  1.0000
  H   H12       1.0  0.9078953963450844  0.8918544450309267  0.41648924281912847  1.0000
  H   H13       1.0  0.9065283301684758  0.43587962887726356  0.5367586016095915  1.0000
  H   H14       1.0  0.8199914591276706  0.6984685441288263  0.9539618106307876  1.0000
  H   H15       1.0  0.8179209430336635  0.679398951634387  0.19251688462618444  1.0000
  H   H16       1.0  0.9804704093603464  0.9822383629207602  0.20221489730125053  1.0000
  H   H17       1.0  0.9839737832870231  0.0003069086090998679  0.9637556927515881  1.0000
  H   H18       1.0  0.9524614287965563  0.8437497816665818  0.40231059329939745  1.0000
  H   H19       1.0  0.8846878452644278  0.7171772578931964  0.3982636305904236  1.0000
  H   H20       1.0  0.8408124681615945  0.894774796621823  0.49623144934507113  1.0000
  C   C27       1.0  0.906163215711823  0.3783236432569408  0.20808427571086296  1.0000
  C   C28       1.0  0.9827229608606501  0.4101836971293043  0.20601031858174948  1.0000
  C   C29       1.0  0.021420522432292317  0.4261289843149146  0.08782373262718646  1.0000
  C   C30       1.0  0.9825639361240643  0.4098512082263388  0.9707493231594357  1.0000
  C   C31       1.0  0.9060497420144225  0.37801742789658727  0.9708739492340195  1.0000
  C   C32       1.0  0.8682982700563038  0.3624312976985098  0.09005835630475056  1.0000
  C   C33       1.0  0.10236594958740852  0.459811035691089  0.0867212693364614  1.0000
  C   C34       1.0  0.1530862417256847  0.39998310774010487  0.004408361023032996  1.0000
  C   C35       1.0  0.22921930712979766  0.43181823757426074  0.003519099575433727  1.0000
  C   C36       1.0  0.2564149376116358  0.5227837067181647  0.08567247050816129  1.0000
  C   C37       1.0  0.20561940804122664  0.5844616366982704  0.16641443615298757  1.0000
  C   C38       1.0  0.12945221867257772  0.5527348339297506  0.16739964949755737  1.0000
  N   N3        1.0  0.3347816473250985  0.5552045086657131  0.08107735194010512  1.0000
  C   C39       1.0  0.3781829414059985  0.5897820150507236  0.19087598542658868  1.0000
  O   O3        1.0  0.35265116636139404  0.5768528090104537  0.30460487995773056  1.0000
  H   H21       1.0  0.7617806769372488  0.31741960323410484  0.4193549116106899  1.0000
  H   H22       1.0  0.01266177987336681  0.42093253349479887  0.2966785723855385  1.0000
  H   H23       1.0  0.011841180389275957  0.4238285538601021  0.8792406232393882  1.0000
  H   H24       1.0  0.8092818428188384  0.337873528860521  0.09086960238186603  1.0000
  H   H25       1.0  0.8766225481772869  0.3657368933312257  0.6434488144489068  1.0000
  H   H26       1.0  0.13407365380149702  0.32738668653734593  0.9417882936690426  1.0000
  H   H27       1.0  0.2673587195159695  0.3844325623277463  0.93953142020344  1.0000
  H   H28       1.0  0.22420334665893174  0.6592434954322102  0.22661642380430114  1.0000
  H   H29       1.0  0.09140135613321054  0.6027826956852311  0.22949599364416898  1.0000
  H   H30       1.0  0.3638077468399321  0.5448610397468858  0.9946210526652424  1.0000
  H   H31       1.0  0.4348397472068253  0.6240853713933825  0.17645093348532215  1.0000
  Zn  Zn1       1.0  0.8234158221697645  0.38217020591903306  0.5874197999657347  1.0000
  Zn  Zn2       1.0  0.9887899195380142  0.3741705877887859  0.591537685385005  1.0000
  C   C40       1.0  0.9060704786150041  0.3729012457606968  0.8266922589343364  1.0000
  C   C41       1.0  0.906137068648292  0.38344109930699  0.35226539825591185  1.0000
  C   C42       1.0  0.9060591444455409  0.6153862087064796  0.5842162555143051  1.0000
  C   C43       1.0  0.906148346667754  0.14095457862052838  0.5947414700881191  1.0000
  O   O4        1.0  0.9688869026081944  0.3821170846660283  0.4022166182331614  1.0000
  O   O5        1.0  0.9688357582997468  0.3681527556790365  0.7798660451978736  1.0000
  O   O6        1.0  0.9688257595976278  0.5639624702807386  0.5840649353150298  1.0000
  O   O7        1.0  0.9688968448920895  0.1863073821242025  0.598017629326141  1.0000
  O   O8        1.0  0.8433088403816266  0.57003341431491  0.5809398546125342  1.0000
  O   O9        1.0  0.8433188387996845  0.3742252601851801  0.7767408946711376  1.0000
  O   O10       1.0  0.8433699833990338  0.38818954453657595  0.3990899062174311  1.0000
  O   O11       1.0  0.8433799256670904  0.19237983266616765  0.5948910146882107  1.0000
