data_image0
_chemical_formula_structural       NC9NC3OH6C12H10C7NC2NH7Zn2C4O8
_chemical_formula_sum              "N4 C37 O9 H23 Zn2"
_cell_length_a       15.78231758774541
_cell_length_b       10.299137764757564
_cell_length_c       9.273999113489252
_cell_angle_alpha    85.04301149889446
_cell_angle_beta     89.74395178918073
_cell_angle_gamma    89.65025930418041

_space_group_name_H-M_alt    "P 1"
_space_group_IT_number       1

loop_
  _space_group_symop_operation_xyz
  'x, y, z'

loop_
  _atom_site_type_symbol
  _atom_site_label
  _atom_site_symmetry_multiplicity
  _atom_site_fract_x
  _atom_site_fract_y
  _atom_site_fract_z
  _atom_site_occupancy
  N   N1        1.0  0.803652534743413  0.42579700129729353  0.4100696346091517  1.0000
  C   C1        1.0  0.7550113610930768  0.34351779240153846  0.4368637909241717  1.0000
  C   C2        1.0  0.6946215677804535  0.2413892913522251  0.4701222412084632  1.0000
  C   C3        1.0  0.7141142941665971  0.11310012536118917  0.5118119596583703  1.0000
  C   C4        1.0  0.6373011069064838  0.05092552661453387  0.5320992840943326  1.0000
  C   C5        1.0  0.5756460123229142  0.14587383380716676  0.5012899992831226  1.0000
  C   C6        1.0  0.48253146509987993  0.1283185466686274  0.5070881526304136  1.0000
  C   C7        1.0  0.42892933245865855  0.2359557858862977  0.47197855296078256  1.0000
  C   C8        1.0  0.34070349584411597  0.22156080917436463  0.4767408579799046  1.0000
  C   C9        1.0  0.28640905721461796  0.3323298812611597  0.4406005613501865  1.0000
  N   N2        1.0  0.24276920927545576  0.4213739352376675  0.4115469946401895  1.0000
  C   C10       1.0  0.30539828406134484  0.09936837268280518  0.5166672765922842  1.0000
  C   C11       1.0  0.3580697630947753  0.9919536326234561  0.551709130555442  1.0000
  C   C12       1.0  0.4461094107408031  0.005953167271518503  0.5470762401313289  1.0000
  O   O1        1.0  0.6122536115616132  0.2584007655568954  0.46466867760604535  1.0000
  H   H1        1.0  0.7765176127656195  0.06983685752166102  0.5258147148223655  1.0000
  H   H2        1.0  0.6284335450569887  0.9486951087114458  0.5653376473907579  1.0000
  H   H3        1.0  0.45566130313065345  0.33104320894572004  0.4409034722437255  1.0000
  H   H4        1.0  0.23726561218007483  0.08717659388219622  0.52069834246259  1.0000
  H   H5        1.0  0.3306083399316669  0.8975162728604905  0.5825722366704706  1.0000
  H   H6        1.0  0.48508279148588807  0.9208730570508712  0.5748410250375908  1.0000
  C   C13       1.0  0.023132819217585684  0.042185130047835966  0.41096538878803246  1.0000
  C   C14       1.0  0.023620231457154296  0.05322479969328153  0.2589876788497103  1.0000
  C   C15       1.0  0.023951660070257386  0.9416909910880817  0.18177356109126408  1.0000
  C   C16       1.0  0.02378903750852145  0.8179710211344456  0.258591341938315  1.0000
  C   C17       1.0  0.023296956520409754  0.8049756498232478  0.4106637513898326  1.0000
  C   C18       1.0  0.022973297335803434  0.9176075128111576  0.48591455808247996  1.0000
  C   C19       1.0  0.02446629060871142  0.9544147945289918  0.020996155796271454  1.0000
  C   C20       1.0  0.07583645731797523  0.8721914524736923  0.9435224963131846  1.0000
  C   C21       1.0  0.07621556872325724  0.8844197249883943  0.7921835813854203  1.0000
  C   C22       1.0  0.025442981901236717  0.978509676290496  0.7166081839255143  1.0000
  C   C23       1.0  0.9741853590100835  0.06063216370135206  0.7922182841185008  1.0000
  C   C24       1.0  0.9735931961769394  0.048900926355478054  0.9435574575753591  1.0000
  H   H7        1.0  0.0229020864567846  0.36541491566934936  0.46942592046093184  1.0000
  H   H8        1.0  0.02491580103707534  0.14879846916596917  0.20031006508084426  1.0000
  H   H9        1.0  0.02287553204745385  0.7316735296019259  0.19963236528270278  1.0000
  H   H10       1.0  0.022595025481381148  0.9083768561495118  0.6031384453494337  1.0000
  H   H11       1.0  0.021829406861824985  0.5731614288746323  0.6976906347342995  1.0000
  H   H12       1.0  0.11648135725534442  0.7996767088612518  0.9999189809569411  1.0000
  H   H13       1.0  0.11608905593400481  0.8210706903561813  0.7334663677543274  1.0000
  H   H14       1.0  0.02581896502114266  0.9877829141035456  0.599461781389504  1.0000
  H   H15       1.0  0.9346887107172516  0.13327513555262577  0.733526592559782  1.0000
  H   H16       1.0  0.9325866029916852  0.11248686659027718  0.999973157971891  1.0000
  C   C25       1.0  0.024678973008072966  0.4268896877020775  0.986966782967038  1.0000
  C   C26       1.0  0.09117816889062608  0.36402823578130894  0.06569967653967157  1.0000
  C   C27       1.0  0.15206665078660264  0.2919768701843605  0.9972806632352498  1.0000
  C   C28       1.0  0.14809231206941875  0.28030395591251356  0.8479755380736442  1.0000
  C   C29       1.0  0.08286879775769562  0.34534590395197196  0.7676874233672875  1.0000
  C   C30       1.0  0.021750809526782863  0.42027109766131  0.8346622967151465  1.0000
  C   C31       1.0  0.2131018726726095  0.20197156597110957  0.7775294765966052  1.0000
  N   N3        1.0  0.28404611588270856  0.15587665692020033  0.8458249552938399  1.0000
  C   C32       1.0  0.3250497244160384  0.09047722078611155  0.7466656542530576  1.0000
  C   C33       1.0  0.2787683668083445  0.09741625025883538  0.6209653054699587  1.0000
  N   N4        1.0  0.20836117963133838  0.1674771497057319  0.6405340168024929  1.0000
  H   H17       1.0  0.9345203423448375  0.5917329960111886  0.25317568945510294  1.0000
  H   H18       1.0  0.0950172183515396  0.3678545682950012  0.18186221315394802  1.0000
  H   H19       1.0  0.20174588798080484  0.24363010178148478  0.06219448348697365  1.0000
  H   H20       1.0  0.0807721333104156  0.3418527846322241  0.651576765637381  1.0000
  H   H21       1.0  0.8895647538724913  0.49490628069050524  0.5484263913335665  1.0000
  H   H22       1.0  0.3849777041376088  0.04044111797149785  0.7652553011374739  1.0000
  H   H23       1.0  0.16043081052784391  0.1876463222510898  0.5646595597342845  1.0000
  Zn  Zn1       1.0  0.9303720884119233  0.4245170656901933  0.4105042983013356  1.0000
  Zn  Zn2       1.0  0.1160495840770055  0.4226431783811433  0.41112413396028913  1.0000
  C   C34       1.0  0.022301290698016007  0.41634806530140445  0.6744317678009819  1.0000
  C   C35       1.0  0.0241224092466894  0.43081379595529307  0.1471968122454954  1.0000
  C   C36       1.0  0.02328144335094093  0.6608369571127706  0.40496912920393124  1.0000
  C   C37       1.0  0.023142192633415867  0.18632334375174908  0.41665952819892116  1.0000
  O   O2        1.0  0.09439926208328364  0.4314139658573225  0.2012067004337803  1.0000
  O   O3        1.0  0.09294936201077902  0.4143246817316168  0.6208919054363353  1.0000
  O   O4        1.0  0.09373989260600712  0.611752551721903  0.4032989145713013  1.0000
  O   O5        1.0  0.0936086685047261  0.23398610664241268  0.4187995828628648  1.0000
  O   O6        1.0  0.9528129406216121  0.6131741380698627  0.40282884917964834  1.0000
  O   O7        1.0  0.9520224106241423  0.4157478291126935  0.620421762469195  1.0000
  O   O8        1.0  0.9534723167375034  0.4328370815270699  0.20073482216706862  1.0000
  O   O9        1.0  0.9526817227796852  0.23540921217772223  0.41832781281299125  1.0000
