data_image0
_chemical_formula_structural       NC5NC3BrH3C9H8C6NCOH5Zn2C4O8
_chemical_formula_sum              "N3 C28 Br1 H16 O9 Zn2"
_cell_length_a       13.839083392302014
_cell_length_b       9.275152443626249
_cell_length_c       9.27373355559583
_cell_angle_alpha    85.97646638804791
_cell_angle_beta     90.01178760078571
_cell_angle_gamma    90.59950914120974

_space_group_name_H-M_alt    "P 1"
_space_group_IT_number       1

loop_
  _space_group_symop_operation_xyz
  'x, y, z'

loop_
  _atom_site_type_symbol
  _atom_site_label
  _atom_site_symmetry_multiplicity
  _atom_site_fract_x
  _atom_site_fract_y
  _atom_site_fract_z
  _atom_site_occupancy
  N   N1        1.0  0.9201738686991238  0.5622870027119051  0.4048517099050619  1.0000
  C   C1        1.0  0.8477445784635754  0.49864583158380366  0.40753513593560503  1.0000
  C   C2        1.0  0.7575042618049577  0.4194542091228999  0.41087408803234027  1.0000
  C   C3        1.0  0.670458667604014  0.4956537463194648  0.4076614853185907  1.0000
  C   C4        1.0  0.5819109664228297  0.4209269223479928  0.4108119378571782  1.0000
  C   C5        1.0  0.4926787162123522  0.4994778395786635  0.4075000391359177  1.0000
  N   N2        1.0  0.42094759321878994  0.5626266168088678  0.40483733519029486  1.0000
  C   C6        1.0  0.580340937973924  0.2696890607165421  0.41718817409986597  1.0000
  C   C7        1.0  0.6669406732301663  0.19336825559051318  0.42040579816317114  1.0000
  C   C8        1.0  0.7556796142547839  0.2673809596723924  0.417285473325252  1.0000
  Br  Br1       1.0  0.8723443746413913  0.15729125123831356  0.4219269791605196  1.0000
  H   H1        1.0  0.671620216271648  0.6128502871335016  0.40272024249417204  1.0000
  H   H2        1.0  0.512251848035788  0.21083680350406084  0.41966913618608226  1.0000
  H   H3        1.0  0.6650175983509055  0.07642091566323982  0.42533615713967543  1.0000
  C   C9        1.0  0.16771515994066122  0.13883837438019173  0.4063159725066955  1.0000
  C   C10       1.0  0.1328323746055129  0.2202392312324828  0.2838798889090244  1.0000
  C   C11       1.0  0.10693116553919625  0.15344081492327377  0.15915122033842977  1.0000
  C   C12       1.0  0.11550594053751206  0.00405355070608282  0.15438904150150567  1.0000
  C   C13       1.0  0.14849896236036786  0.9209521530204634  0.2757904272691878  1.0000
  C   C14       1.0  0.17341548145217758  0.9860642898057609  0.40338556446974194  1.0000
  C   C15       1.0  0.08930029183423804  0.9354991281167724  0.025224643145529187  1.0000
  C   C16       1.0  0.06735918267840013  0.8780673803021534  0.9170697110063486  1.0000
  C   C17       1.0  0.04073798321344113  0.808372111595761  0.7858426690780473  1.0000
  H   H4        1.0  0.30662026192331093  0.2236750511667709  0.694136603831899  1.0000
  H   H5        1.0  0.1277421975708719  0.3367483969522629  0.2834267014007555  1.0000
  H   H6        1.0  0.08107722698580999  0.21866064692370066  0.065812490105319  1.0000
  H   H7        1.0  0.152566525880709  0.8046017049519903  0.27176989371337723  1.0000
  H   H8        1.0  0.26383914850530665  0.6929403722423763  0.6002453442645785  1.0000
  H   H9        1.0  0.058405414539123957  0.69180685620575  0.7993060799433289  1.0000
  H   H10       1.0  0.9620870047101946  0.8206894560476578  0.7661149918911161  1.0000
  H   H11       1.0  0.08152593715410572  0.8597464692504724  0.6925546548171609  1.0000
  C   C18       1.0  0.17047944514591995  0.5579062751242769  0.981639503452879  1.0000
  C   C19       1.0  0.081612413031678  0.5495662838412743  0.05562215283001182  1.0000
  C   C20       1.0  0.993702798531074  0.55291738473679  0.9806633946085027  1.0000
  C   C21       1.0  0.9946660089368426  0.56929756812623  0.8292589816517768  1.0000
  C   C22       1.0  0.08206560546115484  0.5754839790428514  0.7540798268117257  1.0000
  C   C23       1.0  0.1706511847833092  0.5669963352682146  0.8280620924399229  1.0000
  N   N3        1.0  0.9045710451372807  0.5477974104321073  0.06069793749722718  1.0000
  C   C24       1.0  0.8170677960777261  0.4813096832104624  0.014147776477530629  1.0000
  O   O1        1.0  0.816046039115386  0.40496782938926024  0.9070610088407531  1.0000
  H   H12       1.0  0.39885639021118124  0.6582280680825017  0.07759995717747081  1.0000
  H   H13       1.0  0.9279963365119146  0.578856980099812  0.768613063684084  1.0000
  H   H14       1.0  0.3251878374600845  0.6284680922454506  0.542739173696568  1.0000
  H   H15       1.0  0.90448305852353  0.5861535920700462  0.16398427881896896  1.0000
  H   H16       1.0  0.7511044604519951  0.4933629984581657  0.07452866779131018  1.0000
  Zn  Zn1       1.0  0.06468632690697484  0.5623812297664716  0.40485590397370547  1.0000
  Zn  Zn2       1.0  0.27643504999863966  0.5625206929553923  0.40484500926726985  1.0000
  C   C25       1.0  0.17057790229501468  0.5595312942024606  0.6680899574306138  1.0000
  C   C26       1.0  0.17054579917514023  0.5653724517138428  0.14161109084746815  1.0000
  C   C27       1.0  0.17233185411668872  0.8258588500456261  0.3981965313064615  1.0000
  C   C28       1.0  0.168791763452959  0.2990431634891282  0.4115045998051958  1.0000
  O   O2        1.0  0.25092556272562194  0.5679248009201845  0.19529490421884232  1.0000
  O   O3        1.0  0.2509105126329503  0.5570837016140967  0.6143974641301779  1.0000
  O   O4        1.0  0.25232576795672745  0.7721465865090695  0.39645660786187686  1.0000
  O   O5        1.0  0.249510235193855  0.3528619251365703  0.41323565239691656  1.0000
  O   O6        1.0  0.09161106945232156  0.772039997539191  0.3964652608401902  1.0000
  O   O7        1.0  0.09019582576961382  0.5569788449796642  0.6144060342710479  1.0000
  O   O8        1.0  0.0902108752367514  0.5678198754078894  0.19530174182186255  1.0000
  O   O9        1.0  0.08879554765353603  0.3527569904668135  0.4132425980862953  1.0000
