data_image0
_chemical_formula_structural       NC5NC3OH4C6BrH5C6OCH6Zn2C4O8
_chemical_formula_sum              "N2 C25 O10 H15 Br1 Zn2"
_cell_length_a       13.84702359539666
_cell_length_b       9.276564384272257
_cell_length_c       9.273891588657152
_cell_angle_alpha    86.03089208269444
_cell_angle_beta     89.66582561404928
_cell_angle_gamma    90.58678901707502

_space_group_name_H-M_alt    "P 1"
_space_group_IT_number       1

loop_
  _space_group_symop_operation_xyz
  'x, y, z'

loop_
  _atom_site_type_symbol
  _atom_site_label
  _atom_site_symmetry_multiplicity
  _atom_site_fract_x
  _atom_site_fract_y
  _atom_site_fract_z
  _atom_site_occupancy
  N   N1        1.0  0.9260423588090495  0.5639161928851453  0.4084112803792672  1.0000
  C   C1        1.0  0.8536069134612645  0.5558159440261305  0.4714749184298312  1.0000
  C   C2        1.0  0.7633976769353937  0.5457294230444292  0.5500024355094197  1.0000
  C   C3        1.0  0.6761640260895218  0.5554736362272112  0.47413921715111546  1.0000
  C   C4        1.0  0.5879562056350622  0.5458426353290105  0.5491206122995789  1.0000
  C   C5        1.0  0.498466015087939  0.5558750667829504  0.4710143162803728  1.0000
  N   N2        1.0  0.42652750275726864  0.5639403735040498  0.40822308110937633  1.0000
  C   C6        1.0  0.5869756415396374  0.5264383482753017  0.7001906149071868  1.0000
  C   C7        1.0  0.6738287469223739  0.5166850277947559  0.7761218685880644  1.0000
  C   C8        1.0  0.7623497585675579  0.5262539745384509  0.7016251827247049  1.0000
  O   O1        1.0  0.8489226268270995  0.5164840198374661  0.7776878469826718  1.0000
  H   H1        1.0  0.6769282638177422  0.5705065261834601  0.3571031781237415  1.0000
  H   H2        1.0  0.519148271466389  0.5188582350860662  0.75920442348802  1.0000
  H   H3        1.0  0.6722872252703929  0.5016819615092236  0.8929264842629561  1.0000
  H   H4        1.0  0.8499496542517508  0.5024425377909336  0.8870052601798183  1.0000
  C   C9        1.0  0.17337858701278244  0.14045050017599722  0.4086868427358894  1.0000
  C   C10       1.0  0.16148695984696348  0.22276051496690275  0.27695232928538194  1.0000
  C   C11       1.0  0.15857839834407345  0.15659390910283477  0.14644494506093841  1.0000
  C   C12       1.0  0.16754911597464317  0.007175924790145728  0.14519399214773987  1.0000
  C   C13       1.0  0.17774675954872188  0.9231545239719449  0.2749370268161213  1.0000
  C   C14       1.0  0.17920037957618232  0.9873950443921352  0.40795990264407656  1.0000
  Br  Br1       1.0  0.16428214567627492  0.9172021248050658  0.9661147863221538  1.0000
  H   H5        1.0  0.14419829543210283  0.40511593597975787  0.643033613572906  1.0000
  H   H6        1.0  0.15673022778028356  0.339394412130104  0.274486499309857  1.0000
  H   H7        1.0  0.15026921330781406  0.22190780600807325  0.04604682536302995  1.0000
  H   H8        1.0  0.18222647912491063  0.8068867175291426  0.2718277295788809  1.0000
  H   H9        1.0  0.23164926784493914  0.6914905419017957  0.6324324969730386  1.0000
  C   C15       1.0  0.17784529806455224  0.5601036085447331  0.9850507477785473  1.0000
  C   C16       1.0  0.2573507510864501  0.6210176336162965  0.05354242788789776  1.0000
  C   C17       1.0  0.33145235103723536  0.692699722325258  0.9736434802791063  1.0000
  C   C18       1.0  0.3263141989615015  0.7038291489759021  0.8221952765866858  1.0000
  C   C19       1.0  0.24883164572538807  0.6420420424714004  0.7523613849440713  1.0000
  C   C20       1.0  0.1747336420792629  0.5677419115361144  0.8315960227526507  1.0000
  O   O2        1.0  0.40830823522650905  0.7518380882458295  0.048770583870376916  1.0000
  C   C21       1.0  0.4883552718344484  0.8277358592074661  0.9815991678614187  1.0000
  H   H10       1.0  0.947530134235608  0.47152075464535637  0.09623039421238766  1.0000
  H   H11       1.0  0.3823237719531165  0.7588989567594122  0.7572049569315973  1.0000
  H   H12       1.0  0.021100805542082053  0.5023861668858016  0.5562670709050086  1.0000
  H   H13       1.0  0.46310298871419897  0.9253214877348712  0.917129584872041  1.0000
  H   H14       1.0  0.528130182116155  0.7561675153504905  0.9112327815768122  1.0000
  H   H15       1.0  0.5380270018508  0.8622077259953891  0.06639453737476053  1.0000
  Zn  Zn1       1.0  0.070471501465599  0.5639193853236455  0.40836528464153377  1.0000
  Zn  Zn2       1.0  0.28209821169279903  0.5639254875769  0.40828085031945194  1.0000
  C   C22       1.0  0.17528018372711254  0.5605532201712904  0.6715857888509278  1.0000
  C   C23       1.0  0.1772918523757132  0.5672934736204354  0.14506048509851044  1.0000
  C   C24       1.0  0.1781160748277566  0.8272526936196904  0.40235354586321925  1.0000
  C   C25       1.0  0.17445587686964403  0.3005922682796802  0.41429280644839817  1.0000
  O   O3        1.0  0.257417301330342  0.5697024824681527  0.1987291776644362  1.0000
  O   O4        1.0  0.2557745051732283  0.5581477511500263  0.6178525985987335  1.0000
  O   O5        1.0  0.258063434958935  0.7735109623268215  0.40044565666841375  1.0000
  O   O6        1.0  0.25512829979893126  0.3543392806301304  0.41613601154079416  1.0000
  O   O7        1.0  0.09744134114169523  0.7735055922698344  0.4005101234414221  1.0000
  O   O8        1.0  0.09515242354364228  0.5581441129848133  0.6179169870307928  1.0000
  O   O9        1.0  0.0967952257893796  0.5696987784135521  0.1987918331766374  1.0000
  O   O10       1.0  0.09450622378590158  0.3543355672361763  0.4161987751281875  1.0000
