data_image0
_chemical_formula_structural       NC9NC3OH6C7F3H5C6NO2H3Zn2C4O8
_chemical_formula_sum              "N3 C29 O11 H14 F3 Zn2"
_cell_length_a       15.78231758774541
_cell_length_b       9.272718291674593
_cell_length_c       9.273395971720358
_cell_angle_alpha    85.39368926886713
_cell_angle_beta     89.96902430017013
_cell_angle_gamma    89.20559360488726

_space_group_name_H-M_alt    "P 1"
_space_group_IT_number       1

loop_
  _space_group_symop_operation_xyz
  'x, y, z'

loop_
  _atom_site_type_symbol
  _atom_site_label
  _atom_site_symmetry_multiplicity
  _atom_site_fract_x
  _atom_site_fract_y
  _atom_site_fract_z
  _atom_site_occupancy
  N   N1        1.0  0.7927425785708746  0.5855069347364623  0.42224337731596623  1.0000
  C   C1        1.0  0.7445801171032554  0.49412623001929995  0.4483223011328099  1.0000
  C   C2        1.0  0.6847845228907149  0.3807005593133592  0.4806929740834969  1.0000
  C   C3        1.0  0.705023450624362  0.23822055975351164  0.5212674898964179  1.0000
  C   C4        1.0  0.6285720974685471  0.16916830971308158  0.5410143540339465  1.0000
  C   C5        1.0  0.5663648368596995  0.2746193372551453  0.5110304526524447  1.0000
  C   C6        1.0  0.47335261761133124  0.2551219895091845  0.516676018210853  1.0000
  C   C7        1.0  0.419124102309764  0.3746658608814095  0.48250207074812845  1.0000
  C   C8        1.0  0.3309821909803168  0.35867842010812634  0.4871392584523959  1.0000
  C   C9        1.0  0.27604312311252205  0.48170057808402394  0.4519618361483671  1.0000
  N   N2        1.0  0.23188507305404402  0.5805945360144087  0.4236822959862505  1.0000
  C   C10       1.0  0.2963882247600664  0.22296916011201143  0.5260035152436433  1.0000
  C   C11       1.0  0.3496848028640688  0.10367239179428922  0.560111652051418  1.0000
  C   C12       1.0  0.4376428274480729  0.11922064667792195  0.5556004415887488  1.0000
  O   O1        1.0  0.6023177917229324  0.39959364260331676  0.47538730383017197  1.0000
  H   H1        1.0  0.7676782815906891  0.19017178232459386  0.5348941515244898  1.0000
  H   H2        1.0  0.6202992039421236  0.0556295426907414  0.5733640436297716  1.0000
  H   H3        1.0  0.44530258542423123  0.48027178315311847  0.4522535395961744  1.0000
  H   H4        1.0  0.2283266276615197  0.20942865320818105  0.5299286129496514  1.0000
  H   H5        1.0  0.32277308444237096  0.9987884415007889  0.5901538593831039  1.0000
  H   H6        1.0  0.4771113523372487  0.02472910919877358  0.5826256579204914  1.0000
  C   C13       1.0  0.014166695349728801  0.1596805100498797  0.4197802101803505  1.0000
  C   C14       1.0  0.9626241277560804  0.24260753058338128  0.3198541810847366  1.0000
  C   C15       1.0  0.905073480977721  0.17663895506428284  0.23129808893495232  1.0000
  C   C16       1.0  0.9013143124925314  0.02530453627527662  0.2397249439366336  1.0000
  C   C17       1.0  0.9529236333108568  0.9414501996402882  0.3365276241431566  1.0000
  C   C18       1.0  0.01046906107812573  0.006409659249845261  0.42615791662138774  1.0000
  C   C19       1.0  0.851999664526062  0.26727597177610285  0.12218374047618255  1.0000
  F   F1        1.0  0.8301691654322907  0.3983936277488287  0.17457330654563408  1.0000
  F   F2        1.0  0.7780659277491871  0.197016337457236  0.09178317890851972  1.0000
  F   F3        1.0  0.8978483689569324  0.29286070795621977  0.9958902201241427  1.0000
  H   H7        1.0  0.11443782621926085  0.234011062632135  0.7316329732982796  1.0000
  H   H8        1.0  0.9660137416802611  0.3596083385800015  0.3131468621799067  1.0000
  H   H9        1.0  0.8590361180575266  0.9714070184803759  0.17017206846358457  1.0000
  H   H10       1.0  0.9494631129638621  0.8246996155365663  0.3384584244626567  1.0000
  H   H11       1.0  0.19218351420986368  0.8866557466273529  0.6004901662600164  1.0000
  C   C20       1.0  0.012780750048538406  0.5874687197249178  0.9990672667855829  1.0000
  C   C21       1.0  0.9371133686932274  0.6212203360832218  0.06965436070927389  1.0000
  C   C22       1.0  0.8612683354379889  0.6413423808332415  0.9931218754492432  1.0000
  C   C23       1.0  0.8589396728388221  0.6281239935834159  0.8437196545297638  1.0000
  C   C24       1.0  0.9345509846422463  0.5968432371020839  0.7717133412418044  1.0000
  C   C25       1.0  0.011854998638766366  0.5786214526616891  0.846870836008201  1.0000
  N   N3        1.0  0.7803045990541707  0.6477968129580229  0.765466317133675  1.0000
  O   O2        1.0  0.7065308676835796  0.679604399526234  0.8362329984084914  1.0000
  O   O3        1.0  0.7776579025599548  0.6359456762006381  0.6323724414802172  1.0000
  H   H12       1.0  0.1989027533183416  0.42388114826605383  0.11488022568451117  1.0000
  H   H13       1.0  0.804136881950488  0.6658864401520379  0.051498065236892376  1.0000
  H   H14       1.0  0.13873258443588288  0.4726823469163905  0.575048505841421  1.0000
  Zn  Zn1       1.0  0.9194696205560777  0.584085384634865  0.42266691834443937  1.0000
  Zn  Zn2       1.0  0.10515804107631305  0.5820041961544338  0.4232704666520909  1.0000
  C   C26       1.0  0.01205319350958801  0.5745503300039452  0.6865745226855529  1.0000
  C   C27       1.0  0.012576487736031483  0.5915410456655636  0.1593630242856406  1.0000
  C   C28       1.0  0.011169924129764029  0.8464199094419722  0.41920000038617555  1.0000
  C   C29       1.0  0.013459701233514922  0.31966973399159615  0.4267376102929652  1.0000
  O   O4        1.0  0.08297575076896968  0.5921116655452248  0.2133887408849  1.0000
  O   O5        1.0  0.0825871503172464  0.5723990529374032  0.6330064615546604  1.0000
  O   O6        1.0  0.08187294754413954  0.7919371715770571  0.417099651282344  1.0000
  O   O7        1.0  0.08368989025234175  0.3725735590586019  0.4292954427943938  1.0000
  O   O8        1.0  0.9409377080137058  0.7935160224425528  0.41664194198859406  1.0000
  O   O9        1.0  0.9416519033028106  0.5739796367506955  0.6325486883394205  1.0000
  O   O10       1.0  0.942040505925346  0.5936922172289893  0.2129292317527045  1.0000
  O   O11       1.0  0.9427546453321096  0.3741540993011916  0.4288360418114792  1.0000
