data_image0
_chemical_formula_structural       NC5NC3OH4C6BrH5C7OH5Zn2C4O8
_chemical_formula_sum              "N2 C25 O10 H14 Br1 Zn2"
_cell_length_a       13.84702359539666
_cell_length_b       9.276564384272257
_cell_length_c       9.274074313596556
_cell_angle_alpha    86.07032153844699
_cell_angle_beta     90.21930263959183
_cell_angle_gamma    90.58678901707502

_space_group_name_H-M_alt    "P 1"
_space_group_IT_number       1

loop_
  _space_group_symop_operation_xyz
  'x, y, z'

loop_
  _atom_site_type_symbol
  _atom_site_label
  _atom_site_symmetry_multiplicity
  _atom_site_fract_x
  _atom_site_fract_y
  _atom_site_fract_z
  _atom_site_occupancy
  N   N1        1.0  0.9157369783105245  0.5626592914241602  0.4085446585326813  1.0000
  C   C1        1.0  0.8437098638196501  0.5546088448650888  0.47160301173076585  1.0000
  C   C2        1.0  0.7540090852472271  0.5445843382403177  0.550123948055483  1.0000
  C   C3        1.0  0.6662842275202138  0.5542686411027924  0.47426708717876415  1.0000
  C   C4        1.0  0.5785619042282998  0.5446968541358963  0.5492421987441001  1.0000
  C   C5        1.0  0.4885659830926864  0.5546676038774891  0.4711424481806416  1.0000
  N   N2        1.0  0.4162209036869718  0.5626833234192812  0.4083564750342463  1.0000
  C   C6        1.0  0.578559503548833  0.5254118693269498  0.7002995413989601  1.0000
  C   C7        1.0  0.6659042563347368  0.5157185128952244  0.7762244318967629  1.0000
  C   C8        1.0  0.7539429092623469  0.5252286284898007  0.7017339889969743  1.0000
  O   O1        1.0  0.8410082757956238  0.5155187416145381  0.7777902790594104  1.0000
  H   H1        1.0  0.6662906684009519  0.5692091059452995  0.3572408559934388  1.0000
  H   H2        1.0  0.5111142420847973  0.5178783602266404  0.7593084045107044  1.0000
  H   H3        1.0  0.6651190330867807  0.5008076889649449  0.8930192591233219  1.0000
  H   H4        1.0  0.8427431227242859  0.5015635891672698  0.8870985312499932  1.0000
  C   C9        1.0  0.16307499075342724  0.13919381633073447  0.40882019779665546  1.0000
  C   C10       1.0  0.1503303955631683  0.22139979840239746  0.27709672394823087  1.0000
  C   C11       1.0  0.14657681157694435  0.15513012890142464  0.14660027649011487  1.0000
  C   C12       1.0  0.15553942941037602  0.005711156692474798  0.14534942840914233  1.0000
  C   C13       1.0  0.16657714637955268  0.9217922158928812  0.27508159036514  1.0000
  C   C14       1.0  0.16889207645119414  0.9861377864713892  0.4080933186238006  1.0000
  Br  Br1       1.0  0.15111293885865584  0.915595935175149  0.9662852297606581  1.0000
  H   H5        1.0  0.13541207147647394  0.4040443192909853  0.6431473299297985  1.0000
  H   H6        1.0  0.14555769748980008  0.33803174826271776  0.2746311006139348  1.0000
  H   H7        1.0  0.13761755858527125  0.22036473990712555  0.04621057034505815  1.0000
  H   H8        1.0  0.17103673356178928  0.8055219539914593  0.2719725536929054  1.0000
  H   H9        1.0  0.22279440270146836  0.6904105533523923  0.6325471017236087  1.0000
  C   C15       1.0  0.16479869973586506  0.5585123729273236  0.9852196043475664  1.0000
  C   C16       1.0  0.0808885076644923  0.6010827099610458  0.05510358699570528  1.0000
  C   C17       1.0  0.0018134528592952401  0.6552426952729706  0.9759047507280514  1.0000
  C   C18       1.0  0.004800071249246421  0.6682729377887537  0.824612477320315  1.0000
  C   C19       1.0  0.08739438426706814  0.6239615163422242  0.7535905932222908  1.0000
  C   C20       1.0  0.16716833016494492  0.5668192141459898  0.8316940119204772  1.0000
  C   C21       1.0  0.9221288116963148  0.7263984491132589  0.7392031249460824  1.0000
  O   O2        1.0  0.8467278591919156  0.7665746958679789  0.7999033805468225  1.0000
  H   H10       1.0  0.4005087762855428  0.521783014441721  0.09195096529644653  1.0000
  H   H11       1.0  0.9386760245084557  0.6882520744215672  0.033301902520602056  1.0000
  H   H12       1.0  0.08856142313013105  0.630950084894613  0.6364275119801874  1.0000
  H   H13       1.0  0.32557340792037226  0.5368542713527473  0.5541942596230722  1.0000
  H   H14       1.0  0.9256181857028185  0.7351518674615075  0.6223248060490729  1.0000
  Zn  Zn1       1.0  0.0601658231491935  0.5626624475391369  0.4084986666494781  1.0000
  Zn  Zn2       1.0  0.2717919866724581  0.5626684831133422  0.40841423940315236  1.0000
  C   C22       1.0  0.1666788322995892  0.5595041515631737  0.6716971124813784  1.0000
  C   C23       1.0  0.16528130136642655  0.5658286000902475  0.14521593254805643  1.0000
  C   C24       1.0  0.16777147109374502  0.8259910082749863  0.4024874316662756  1.0000
  C   C25       1.0  0.1641885786742332  0.2993400115479634  0.4144256917187723  1.0000
  O   O3        1.0  0.24575424982952288  0.5682799919086798  0.19888012757575457  1.0000
  O   O4        1.0  0.2468252366210597  0.5570562486364046  0.6179684251724409  1.0000
  O   O5        1.0  0.24770647782994204  0.7722477702934316  0.400579702356203  1.0000
  O   O6        1.0  0.2448729361752977  0.3530884795050948  0.41626874234708544  1.0000
  O   O7        1.0  0.08708480142871998  0.7722424511468209  0.4006441637267736  1.0000
  O   O8        1.0  0.08620357190024164  0.5570526613197011  0.6180328082086275  1.0000
  O   O9        1.0  0.08513257997684232  0.5682763373340762  0.19894277783730516  1.0000
  O   O10       1.0  0.08425126655032658  0.3530848156764855  0.41633150067477087  1.0000
