data_image0
_chemical_formula_structural       NC5NC3OH4C7NH5C6NCOH5Zn2C4O8
_chemical_formula_sum              "N4 C26 O10 H14 Zn2"
_cell_length_a       13.84702359539666
_cell_length_b       9.275154477615127
_cell_length_c       9.27373355559583
_cell_angle_alpha    86.40037001266045
_cell_angle_beta     89.99675348252173
_cell_angle_gamma    89.43463511314383

_space_group_name_H-M_alt    "P 1"
_space_group_IT_number       1

loop_
  _space_group_symop_operation_xyz
  'x, y, z'

loop_
  _atom_site_type_symbol
  _atom_site_label
  _atom_site_symmetry_multiplicity
  _atom_site_fract_x
  _atom_site_fract_y
  _atom_site_fract_z
  _atom_site_occupancy
  N   N1        1.0  0.8988386231823788  0.5609342691139481  0.4161128540374064  1.0000
  C   C1        1.0  0.8267555163086729  0.5529432585107565  0.47913063437545506  1.0000
  C   C2        1.0  0.7369850154811778  0.5429927621751269  0.557601048919397  1.0000
  C   C3        1.0  0.6493275156711742  0.5526055658006012  0.4817929952756641  1.0000
  C   C4        1.0  0.5615386181357015  0.5431044469825722  0.5567198666809119  1.0000
  C   C5        1.0  0.4716120450701408  0.5530015834233044  0.47867036696955073  1.0000
  N   N2        1.0  0.39932271555794047  0.5609581237346037  0.4159247916544376  1.0000
  C   C6        1.0  0.5614020868322596  0.5239618420035896  0.7076800163447379  1.0000
  C   C7        1.0  0.6486794262574744  0.5143400489914922  0.7835560540644269  1.0000
  C   C8        1.0  0.7367842203129354  0.5237799532301299  0.7091135404654005  1.0000
  O   O1        1.0  0.8237820535112799  0.5141417535852615  0.78512089438378  1.0000
  H   H1        1.0  0.6494378678283972  0.5674357269825583  0.3648420614247867  1.0000
  H   H2        1.0  0.49390442934826506  0.5164839520005053  0.7666509118826227  1.0000
  H   H3        1.0  0.6477904958823995  0.4995393105945647  0.9002757333193813  1.0000
  H   H4        1.0  0.8254198425220945  0.5002896301827278  0.8943588150477714  1.0000
  C   C9        1.0  0.15187975944246412  0.13753912952935465  0.41434992501336243  1.0000
  C   C10       1.0  0.12536424535363075  0.2193530108306876  0.2872823835001137  1.0000
  C   C11       1.0  0.090994015463149  0.1520212580410072  0.16694927904519585  1.0000
  C   C12       1.0  0.08257341191764311  0.0019573694232379885  0.17226659342209683  1.0000
  C   C13       1.0  0.10998381347200037  0.9189047658133384  0.2964371680364011  1.0000
  C   C14       1.0  0.14629088105270927  0.9843423170544876  0.41770014234928965  1.0000
  C   C15       1.0  0.06319360104893357  0.23740045139148758  0.038350605103998126  1.0000
  N   N3        1.0  0.04084977904867615  0.3060297707533679  0.9349902112875701  1.0000
  H   H5        1.0  0.17062593258396874  0.218008268203435  0.76812470806636  1.0000
  H   H6        1.0  0.12930793270749197  0.3362666993012429  0.2830044444868598  1.0000
  H   H7        1.0  0.055643154157912544  0.9488367655056683  0.07978323852425273  1.0000
  H   H8        1.0  0.10491270976712319  0.8024355666978987  0.2963122334525421  1.0000
  H   H9        1.0  0.16301123702796172  0.6881170923157336  0.6547377465805331  1.0000
  C   C16       1.0  0.14906003963855577  0.5563979739518785  0.9927800553828833  1.0000
  C   C17       1.0  0.06035470312989144  0.5481181097123946  0.06673214112439596  1.0000
  C   C18       1.0  0.9724505013029232  0.551522950692658  0.991829176838405  1.0000
  C   C19       1.0  0.9731949617855833  0.5678944237630748  0.8405458910835217  1.0000
  C   C20       1.0  0.06046238620092459  0.5740226977518681  0.765381846670397  1.0000
  C   C21       1.0  0.14911059220288392  0.5654834289863422  0.8392699907041807  1.0000
  N   N4        1.0  0.8834377001801935  0.5464616772968978  0.07185712711242531  1.0000
  C   C22       1.0  0.7968699600531822  0.48006198359365637  0.02484473141970534  1.0000
  O   O2        1.0  0.7968657397105752  0.4037585402336765  0.917192215081001  1.0000
  H   H10       1.0  0.37597056099721615  0.6565262213694785  0.08940405090264014  1.0000
  H   H11       1.0  0.9064359073729654  0.5774911198018644  0.7799943279758565  1.0000
  H   H12       1.0  0.30274038735135794  0.6268273915114524  0.5543485153559065  1.0000
  H   H13       1.0  0.8828388184406891  0.5847989394440927  0.17542792732986512  1.0000
  H   H14       1.0  0.7307836188244738  0.4921509040525671  0.08533822235158528  1.0000
  Zn  Zn1       1.0  0.04326754543577273  0.5609373823284586  0.41606687867437153  1.0000
  Zn  Zn2       1.0  0.2548938478109324  0.5609433391102934  0.4159824829185361  1.0000
  C   C23       1.0  0.14913679374311745  0.5580221270828315  0.679242524933671  1.0000
  C   C24       1.0  0.14902689845770278  0.5638604151835518  0.1528069843978881  1.0000
  C   C25       1.0  0.1473419800039435  0.8242168244675084  0.41132341716087883  1.0000
  C   C26       1.0  0.15082165142130788  0.2976639863272119  0.4207261621874181  1.0000
  O   O3        1.0  0.22932689634197434  0.5663608489240053  0.2064814310039036  1.0000
  O   O4        1.0  0.22945626981640932  0.5555251222317428  0.6255036047024398  1.0000
  O   O5        1.0  0.22800585248125804  0.770480722916097  0.40915703596677355  1.0000
  O   O6        1.0  0.2307772413888763  0.3514052573920057  0.4228278917423247  1.0000
  O   O7        1.0  0.06738407964014748  0.7704754640462019  0.4092214698718076  1.0000
  O   O8        1.0  0.06883448553318595  0.5555215948329655  0.6255679686119611  1.0000
  O   O9        1.0  0.06870511235109933  0.5663572526818339  0.2065440618650356  1.0000
  O   O10       1.0  0.07015545746856904  0.3514016519969356  0.4228906306219271  1.0000
