data_image0
_chemical_formula_structural       NC9NC3SH6C6NO2H5C8NH11Zn2C4O8
_chemical_formula_sum              "N4 C30 S1 H22 O10 Zn2"
_cell_length_a       16.77567553997237
_cell_length_b       9.273392599741053
_cell_length_c       9.275652972338536
_cell_angle_alpha    86.06806642986213
_cell_angle_beta     90.8258093540976
_cell_angle_gamma    90.29770283283837

_space_group_name_H-M_alt    "P 1"
_space_group_IT_number       1

loop_
  _space_group_symop_operation_xyz
  'x, y, z'

loop_
  _atom_site_type_symbol
  _atom_site_label
  _atom_site_symmetry_multiplicity
  _atom_site_fract_x
  _atom_site_fract_y
  _atom_site_fract_z
  _atom_site_occupancy
  N   N1        1.0  0.7349673887515026  0.588090115730638  0.42118904479141017  1.0000
  C   C1        1.0  0.680098164587846  0.6431790361003784  0.4674852450277362  1.0000
  C   C2        1.0  0.6120046639910169  0.7115407407502398  0.524935288652636  1.0000
  C   C3        1.0  0.6140208568058949  0.8100759383122955  0.6306598591122017  1.0000
  C   C4        1.0  0.5382538222734624  0.8585875092537998  0.6657444575631073  1.0000
  C   C5        1.0  0.4762660540731292  0.7980397716653655  0.5872314626966646  1.0000
  C   C6        1.0  0.3896603115306081  0.8270644060892884  0.5993403835579891  1.0000
  C   C7        1.0  0.3330784641279944  0.7382477004502086  0.5344471144860334  1.0000
  C   C8        1.0  0.2513302791073546  0.7650319052507941  0.5453782513734733  1.0000
  C   C9        1.0  0.1940914250586809  0.6732414103865076  0.478929602083971  1.0000
  N   N2        1.0  0.1480883758761082  0.5994550084012521  0.42551470494539956  1.0000
  C   C10       1.0  0.22533138025961616  0.8809797508996213  0.6210245986962413  1.0000
  C   C11       1.0  0.2808184322225233  0.9699692955074636  0.6854059039200235  1.0000
  C   C12       1.0  0.362408022444822  0.9435906777813414  0.6748026570481043  1.0000
  S   S1        1.0  0.5170301312346562  0.683914846548991  0.4747501025823848  1.0000
  H   H1        1.0  0.6684336437873288  0.8458015863755297  0.6815401252626065  1.0000
  H   H2        1.0  0.529898357394469  0.9345417304911355  0.7474768377886514  1.0000
  H   H3        1.0  0.3521484375457288  0.6475761262897035  0.4760295271718254  1.0000
  H   H4        1.0  0.1622612497080375  0.9026483443564812  0.6300502590088848  1.0000
  H   H5        1.0  0.2605702161009382  0.05995941615620692  0.743469586592288  1.0000
  H   H6        1.0  0.4036456722394503  0.0157074244758264  0.7246437408518269  1.0000
  C   C13       1.0  0.9439579553899403  0.17030473940018354  0.4224709554468391  1.0000
  C   C14       1.0  0.9332596147479147  0.25247050684260386  0.2906922571888677  1.0000
  C   C15       1.0  0.9155463276792967  0.18603330133382934  0.1636177118594846  1.0000
  C   C16       1.0  0.9079477403463172  0.03541656079770994  0.16477634610271208  1.0000
  C   C17       1.0  0.9198853451767672  0.9521097511051899  0.2955629113524991  1.0000
  C   C18       1.0  0.9391055541928719  0.017229575191288763  0.4242453207125849  1.0000
  N   N3        1.0  0.8889764796886688  0.9674988731348052  0.03346219515588067  1.0000
  O   O1        1.0  0.8779852713875685  0.049433232579682455  0.9053835157243664  1.0000
  O   O2        1.0  0.8819577264350037  0.8333740861304548  0.0336188117142402  1.0000
  H   H7        1.0  0.9291940365760122  0.24876043222358857  0.7760769776990453  1.0000
  H   H8        1.0  0.9367267295006215  0.36937959352112193  0.28647003938410065  1.0000
  H   H9        1.0  0.9069896003492984  0.2530482303568395  0.06446390597042906  1.0000
  H   H10       1.0  0.916039295361871  0.8354087048190284  0.29654864403940695  1.0000
  H   H11       1.0  0.9318846712310552  0.7205555596346888  0.6632555362527428  1.0000
  C   C19       1.0  0.9397732341111033  0.5909078021645656  6.294683914087963e-05  1.0000
  C   C20       1.0  0.8875275179394663  0.6838135669430646  0.06586630671599503  1.0000
  C   C21       1.0  0.8415277810094344  0.7853072673305547  0.9829060283623661  1.0000
  C   C22       1.0  0.8467049417125038  0.7924763204161133  0.8321900016942916  1.0000
  C   C23       1.0  0.8971951282680435  0.6995864623233821  0.7649603210025533  1.0000
  C   C24       1.0  0.9432902977047677  0.5966265567890532  0.8466533512379928  1.0000
  C   C25       1.0  0.7850134854725738  0.8824240232539647  0.055070617543810485  1.0000
  C   C26       1.0  0.7034538208418449  0.8097111596174112  0.07485213760212406  1.0000
  N   N4        1.0  0.6488294492303062  0.9056764072732799  0.1426980881451443  1.0000
  H   H12       1.0  0.9994301652407516  0.3782641440914246  0.29683311062407913  1.0000
  H   H13       1.0  0.8837586922392706  0.6796971964764804  0.18264572844294436  1.0000
  H   H14       1.0  0.8109127333913364  0.8691774350582812  0.7663994228879782  1.0000
  H   H15       1.0  0.898598853723738  0.7058193480629266  0.6479684926528235  1.0000
  H   H16       1.0  0.053366760474147235  0.4675565272655808  0.5770411625759486  1.0000
  H   H17       1.0  0.8098327630506705  0.9084492290438907  0.16209940384442123  1.0000
  H   H18       1.0  0.7780351613485917  0.986359665723879  0.9889124212172384  1.0000
  H   H19       1.0  0.6786698598792242  0.7848457530029747  0.9674090637275633  1.0000
  H   H20       1.0  0.7096727354516089  0.7065844023937322  0.14288734585364837  1.0000
  H   H21       1.0  0.5928032672094434  0.8557019278225028  0.1464099155905525  1.0000
  H   H22       1.0  0.6674546696582996  0.9134076486785146  0.25002859226811625  1.0000
  Zn  Zn1       1.0  0.8541852412819825  0.5913659844439507  0.42244566173558606  1.0000
  Zn  Zn2       1.0  0.028870634958445995  0.5961674557960794  0.42426990095292827  1.0000
  C   C27       1.0  0.9426566126294261  0.5898007344466514  0.6866175892877515  1.0000
  C   C28       1.0  0.940401161333082  0.5977345786867112  0.16009813861309508  1.0000
  C   C29       1.0  0.9399947934629459  0.8571038659653033  0.4181657987867864  1.0000
  C   C30       1.0  0.9430629311374102  0.3304297135054308  0.42855000171218616  1.0000
  O   O3        1.0  0.006904132009518669  0.6018415494271059  0.21449968700716804  1.0000
  O   O4        1.0  0.008735818317626933  0.5893368786876483  0.633600179025122  1.0000
  O   O5        1.0  0.006585478253581686  0.8051875234599026  0.4168234526635526  1.0000
  O   O6        1.0  0.009054411957167162  0.3859909126021166  0.4312763046881809  1.0000
  O   O7        1.0  0.8740014046716693  0.8015425260009257  0.41543925737023146  1.0000
  O   O8        1.0  0.8761517344862745  0.5856936132543114  0.6322159105035736  1.0000
  O   O9        1.0  0.8743200413193662  0.5981982220366444  0.21311368532557262  1.0000
  O   O10       1.0  0.8764703217718195  0.38234757562740174  0.42989041105704007  1.0000
