data_image0
_chemical_formula_structural       NC9NC3OCH8C12ClH9C12OCH12Zn2C4O8
_chemical_formula_sum              "N2 C42 O10 H29 Cl1 Zn2"
_cell_length_a       17.728193572023454
_cell_length_b       10.299768534541528
_cell_length_c       10.299794127170987
_cell_angle_alpha    85.578860457747
_cell_angle_beta     90.69834653510782
_cell_angle_gamma    88.4716702258364

_space_group_name_H-M_alt    "P 1"
_space_group_IT_number       1

loop_
  _space_group_symop_operation_xyz
  'x, y, z'

loop_
  _atom_site_type_symbol
  _atom_site_label
  _atom_site_symmetry_multiplicity
  _atom_site_fract_x
  _atom_site_fract_y
  _atom_site_fract_z
  _atom_site_occupancy
  N   N1        1.0  0.7109540406264306  0.3864873862910044  0.5853072052808843  1.0000
  C   C1        1.0  0.6503309851423855  0.3490638979509295  0.5983101809890061  1.0000
  C   C2        1.0  0.5748636355735376  0.30254151313147504  0.6144935529992159  1.0000
  C   C3        1.0  0.5629309534284517  0.17450892366448456  0.6239075946380699  1.0000
  C   C4        1.0  0.4862064665928251  0.12506275704760356  0.6388553734029458  1.0000
  C   C5        1.0  0.4280788926349274  0.2077357493158316  0.6563283764854864  1.0000
  C   C6        1.0  0.3500168351227281  0.16269494812444996  0.6780596459849255  1.0000
  C   C7        1.0  0.2887003384100562  0.2481517192186602  0.642603404590619  1.0000
  C   C8        1.0  0.21441383773964454  0.20885555253140398  0.6627488040998104  1.0000
  C   C9        1.0  0.1521193915549862  0.296848491270461  0.6252184155320992  1.0000
  N   N2        1.0  0.10204806380810952  0.3675862884126504  0.5950475307869894  1.0000
  C   C10       1.0  0.20081227000610774  0.08398306260321321  0.7194044826296873  1.0000
  C   C11       1.0  0.26123009038593165  0.9988442332029341  0.7562692435786664  1.0000
  C   C12       1.0  0.3354128197745231  0.037650820448298594  0.7362533999985457  1.0000
  O   O1        1.0  0.4414706380825502  0.3415181686878713  0.6550392945375378  1.0000
  C   C13       1.0  0.5092133809604285  0.39888360664578326  0.6064345195381926  1.0000
  H   H1        1.0  0.6098398801803356  0.10504908025353821  0.6218032150404864  1.0000
  H   H2        1.0  0.4785268631837619  0.02141517657080461  0.6368679771487233  1.0000
  H   H3        1.0  0.29861974654480355  0.3449625587566727  0.5981832746611804  1.0000
  H   H4        1.0  0.14358841546452517  0.05269997494370958  0.735542471561355  1.0000
  H   H5        1.0  0.2505741269199491  0.9026923755829296  0.8011505217104202  1.0000
  H   H6        1.0  0.38092404141290304  0.9704308205804506  0.7686690392517035  1.0000
  H   H7        1.0  0.49976007788328464  0.43478327341641054  0.502914338366127  1.0000
  H   H8        1.0  0.5221139579737146  0.4832836175350377  0.6630184732514379  1.0000
  C   C14       1.0  0.9064335035436599  0.9956747138195762  0.5901735660044503  1.0000
  C   C15       1.0  0.9114128703643939  0.004960358196979266  0.4538352292221097  1.0000
  C   C16       1.0  0.9140085033252854  0.8925225968075838  0.3847607050183617  1.0000
  C   C17       1.0  0.9115569993129082  0.7696656796462364  0.45385430800983645  1.0000
  C   C18       1.0  0.9065758572138531  0.7583885920103749  0.5901925385315765  1.0000
  C   C19       1.0  0.9040425597466951  0.8719486276703443  0.6575886863604334  1.0000
  C   C20       1.0  0.9192772617018005  0.9033996537861441  0.24052613541141118  1.0000
  C   C21       1.0  0.8763506786444797  0.9989928178649136  0.16499682019000006  1.0000
  C   C22       1.0  0.881377021458827  0.009031571776189299  0.029248803264336543  1.0000
  C   C23       1.0  0.9292571854064452  0.9240023243371928  0.9673365131118801  1.0000
  C   C24       1.0  0.9721715030765826  0.8287215610735399  0.04135437517102702  1.0000
  C   C25       1.0  0.9672791722230822  0.8182840835190625  0.17712037226597288  1.0000
  Cl  Cl1       1.0  0.935479395507126  0.9368475393034179  0.79701469772094  1.0000
  H   H9        1.0  0.9044973995141566  0.3195920468727764  0.6421209664487457  1.0000
  H   H10       1.0  0.9143258576967845  0.09981671837980355  0.40117772988766665  1.0000
  H   H11       1.0  0.9125006204952898  0.6827709996771727  0.40093421598119217  1.0000
  H   H12       1.0  0.9002004431913861  0.8640170286972766  0.7627674181148687  1.0000
  H   H13       1.0  0.90470785534908  0.4266362971778802  0.6421494356884851  1.0000
  H   H14       1.0  0.83819196857232  0.06482639866595452  0.2107876790326937  1.0000
  H   H15       1.0  0.8478751945319637  0.08274838875044231  0.9723053741330179  1.0000
  H   H16       1.0  0.009488727259280511  0.7628815452867611  0.993853162299414  1.0000
  H   H17       1.0  0.0017387017922281256  0.7448138595349636  0.23259342015299753  1.0000
  C   C26       1.0  0.9065301088880798  0.37691697033074867  0.2088322736900623  1.0000
  C   C27       1.0  0.8325735937957007  0.3313690838520702  0.2097960124034779  1.0000
  C   C28       1.0  0.7950785098153447  0.30839319941189447  0.09313696430103624  1.0000
  C   C29       1.0  0.8325223317577632  0.3315980254744517  0.9744898486615128  1.0000
  C   C30       1.0  0.9064792694823329  0.37714639895012514  0.971533858649249  1.0000
  C   C31       1.0  0.9430697958102  0.3995479023142043  0.08921445867590605  1.0000
  C   C32       1.0  0.716838865468712  0.2601989163260596  0.09521129578348542  1.0000
  C   C33       1.0  0.6628243945215256  0.3114758994383746  0.0027187150990901597  1.0000
  C   C34       1.0  0.5892912661698044  0.2661001935474123  0.004937620811770849  1.0000
  C   C35       1.0  0.5687038101696094  0.16916237200080997  0.09910959839208376  1.0000
  C   C36       1.0  0.6219735290449784  0.1165168010708215  0.19244618462118135  1.0000
  C   C37       1.0  0.6956093580750567  0.16252708230606694  0.18977847394705583  1.0000
  O   O2        1.0  0.604192448454996  0.018804390250034546  0.28882299906961983  1.0000
  C   C38       1.0  0.5318458542387695  0.9630279316613592  0.30305718927260883  1.0000
  H   H18       1.0  0.9347207395296522  0.3942138736392134  0.5359228548005028  1.0000
  H   H19       1.0  0.8035784589405656  0.3153417496727864  0.3013505499129101  1.0000
  H   H20       1.0  0.8042299950695746  0.3123711479912268  0.8844532735563019  1.0000
  H   H21       1.0  0.00012445595958987621  0.434685326459536  0.0877025913043783  1.0000
  H   H22       1.0  0.9346448515807765  0.3945643063091855  0.6429497489268963  1.0000
  H   H23       1.0  0.6771904290135058  0.387846828570985  0.9297593628742522  1.0000
  H   H24       1.0  0.5480388307401264  0.3064888241978134  0.9335731184914295  1.0000
  H   H25       1.0  0.5113667426775267  0.13589960786735644  0.09850932418768732  1.0000
  H   H26       1.0  0.736528816937129  0.1204045444078059  0.2609608816354856  1.0000
  H   H27       1.0  0.5162827973008208  0.915324887264689  0.21380807208159158  1.0000
  H   H28       1.0  0.5337710730246058  0.8884599154947238  0.3867755179581951  1.0000
  H   H29       1.0  0.48887884814244364  0.03936196072556242  0.3222656493198419  1.0000
  Zn  Zn1       1.0  0.8238153379360149  0.38102946969428353  0.5881255520916708  1.0000
  Zn  Zn2       1.0  0.9891867894058782  0.37303360468224644  0.5922398208746615  1.0000
  C   C39       1.0  0.9064862084446699  0.3719295135614569  0.8273667707597206  1.0000
  C   C40       1.0  0.9065177250456418  0.38213511212848195  0.3529987746355534  1.0000
  C   C41       1.0  0.9065454038258794  0.6142181005165681  0.5850139665370682  1.0000
  C   C42       1.0  0.9064584729389019  0.13984496764853208  0.5953516466507305  1.0000
  O   O3        1.0  0.9692711718498598  0.3808463134448658  0.4029437127502928  1.0000
  O   O4        1.0  0.9692458667132482  0.3671486558956013  0.7805440936008647  1.0000
  O   O5        1.0  0.9692928216396296  0.5627997953304176  0.5848424684904816  1.0000
  O   O6        1.0  0.9692241605016314  0.1851951859992618  0.598645239086943  1.0000
  O   O7        1.0  0.8437779104071018  0.5688678911072766  0.5817201324685604  1.0000
  O   O8        1.0  0.8437309557730911  0.37321831192730764  0.7774216883755907  1.0000
  O   O9        1.0  0.8437562610555726  0.3869159237493824  0.3998197461986128  1.0000
  O   O10       1.0  0.8437092496960316  0.19126478704457428  0.5955213698981676  1.0000
