data_image0
_chemical_formula_structural       NC9NC3OH6C10ClC2H9C10SC3H12Zn2C4O8
_chemical_formula_sum              "N2 C41 O9 H27 Cl1 S1 Zn2"
_cell_length_a       15.78231758774541
_cell_length_b       10.299769246903262
_cell_length_c       10.299154459856256
_cell_angle_alpha    85.57305283882175
_cell_angle_beta     90.05839554295305
_cell_angle_gamma    89.64978214069643

_space_group_name_H-M_alt    "P 1"
_space_group_IT_number       1

loop_
  _space_group_symop_operation_xyz
  'x, y, z'

loop_
  _atom_site_type_symbol
  _atom_site_label
  _atom_site_symmetry_multiplicity
  _atom_site_fract_x
  _atom_site_fract_y
  _atom_site_fract_z
  _atom_site_occupancy
  N   N1        1.0  0.7985692631358423  0.4129819742213987  0.5699253696209878  1.0000
  C   C1        1.0  0.7500140496037329  0.3309240329749694  0.5940031491558206  1.0000
  C   C2        1.0  0.6897309549355138  0.2290701819694387  0.6238898765639069  1.0000
  C   C3        1.0  0.7093574302455288  0.1011253164928978  0.6613530108864023  1.0000
  C   C4        1.0  0.6326093274778215  0.03911824036775947  0.679583665106121  1.0000
  C   C5        1.0  0.5708553898569844  0.13381209184521148  0.6518979392640487  1.0000
  C   C6        1.0  0.4777594428129814  0.11630466345588976  0.6571083751111844  1.0000
  C   C7        1.0  0.42404467362096065  0.223651981735693  0.6255580991687619  1.0000
  C   C8        1.0  0.33583411411544783  0.20929631155130757  0.629837692504819  1.0000
  C   C9        1.0  0.2814237324556481  0.319766954171395  0.5973611983037967  1.0000
  N   N2        1.0  0.2376906767102536  0.40857109794148067  0.5712529994336653  1.0000
  C   C10       1.0  0.3006569908459245  0.08743355205047408  0.6657165518793129  1.0000
  C   C11       1.0  0.35344088901744053  0.980308172164023  0.6972059557061376  1.0000
  C   C12       1.0  0.44146567472809223  0.9942694688188243  0.693042657740444  1.0000
  O   O1        1.0  0.6073455014363811  0.24603659623649743  0.6189892941321256  1.0000
  H   H1        1.0  0.771805673351023  0.05797770820702719  0.6739360729316626  1.0000
  H   H2        1.0  0.6238484006581332  0.9371623215242127  0.7094522789596083  1.0000
  H   H3        1.0  0.4506769519641605  0.3184828157690347  0.5976332630317669  1.0000
  H   H4        1.0  0.2325372503505986  0.07527504501318139  0.669339022411733  1.0000
  H   H5        1.0  0.3260784781376645  0.8861256510078068  0.7249403067759066  1.0000
  H   H6        1.0  0.48052812862041705  0.9094186253923662  0.7179927332454623  1.0000
  C   C13       1.0  0.018054348477023016  0.029412176352356486  0.5705837077858904  1.0000
  C   C14       1.0  0.025919137466151154  0.038854252161022895  0.43439601477169054  1.0000
  C   C15       1.0  0.02998527349360014  0.9264983900462672  0.36539950280484335  1.0000
  C   C16       1.0  0.02607997363698477  0.8035644834102149  0.43441844493009274  1.0000
  C   C17       1.0  0.018213699637053216  0.7921308164463503  0.57060585866361  1.0000
  C   C18       1.0  0.014245161100332908  0.9056110558027062  0.6379258463244994  1.0000
  C   C19       1.0  0.038307030032701056  0.9375403026620419  0.2213243992904783  1.0000
  C   C20       1.0  0.09326183092865747  0.8540340791191581  0.15900120975321763  1.0000
  C   C21       1.0  0.10101907733281451  0.8646235997145404  0.023384019895379853  1.0000
  C   C22       1.0  0.05406836582005511  0.9584534795481268  0.94843672764679  1.0000
  Cl  Cl1       1.0  0.06389429702631655  0.9714913649303192  0.7783032174383209  1.0000
  C   C23       1.0  0.9992754219710307  0.041877942733841156  0.009269456841650031  1.0000
  C   C24       1.0  0.991367901508809  0.03168252375263657  0.14486590102162178  1.0000
  H   H7        1.0  0.015025085044717326  0.35326831515961804  0.6224745381583605  1.0000
  H   H8        1.0  0.03006837156075369  0.13380440880220568  0.38181871775827475  1.0000
  H   H9        1.0  0.02802193142713527  0.716697250137268  0.3815347854139157  1.0000
  H   H10       1.0  0.008177550199827131  0.8975588497379179  0.7429883113649547  1.0000
  H   H11       1.0  0.015256322517527943  0.4603196279127616  0.6225059659515948  1.0000
  H   H12       1.0  0.1310287108714444  0.7817280212387123  0.21522149509830446  1.0000
  H   H13       1.0  0.14371180005524187  0.8000342809597594  0.9767242625453179  1.0000
  H   H14       1.0  0.9626086825462699  0.1144625859297812  0.951600042945134  1.0000
  H   H15       1.0  0.9477587397741334  0.09623656242527458  0.18979762130111344  1.0000
  C   C25       1.0  0.01824488560918879  0.410698847438  0.18921674797892862  1.0000
  C   C26       1.0  0.9346203576562876  0.3648080022589326  0.1918476711908359  1.0000
  C   C27       1.0  0.8921077177194925  0.3416167067075324  0.0760326514759424  1.0000
  C   C28       1.0  0.9343449611965652  0.36493225907031346  0.9565544271419427  1.0000
  C   C29       1.0  0.018023102676421696  0.410844184639869  0.9519729060088705  1.0000
  C   C30       1.0  0.059457929545332994  0.43344738552162076  0.06877717323072852  1.0000
  C   C31       1.0  0.803648445135173  0.29306081514156257  0.0798521456355692  1.0000
  C   C32       1.0  0.778600821956124  0.19565414111282786  0.17520767008541527  1.0000
  C   C33       1.0  0.6953410770206632  0.14999825579419768  0.17856945347107844  1.0000
  C   C34       1.0  0.6361321614963847  0.2007472514193327  0.08679301284245011  1.0000
  S   S1        1.0  0.5292617495959884  0.1422981223507529  0.09155773301323711  1.0000
  C   C35       1.0  0.5510741382004285  0.014076964914714772  0.9839844896217178  1.0000
  C   C36       1.0  0.6602796231410862  0.29790603669886195  0.991924543747805  1.0000
  C   C37       1.0  0.7434963096159508  0.3437416918936431  0.9881997244222972  1.0000
  H   H16       1.0  0.05042519817052571  0.42828347396933464  0.515685589357592  1.0000
  H   H17       1.0  0.9019514989085304  0.34868685432834945  0.28405888817367186  1.0000
  H   H18       1.0  0.9022761625860684  0.34553570773832964  0.8671109397468642  1.0000
  H   H19       1.0  0.12396066532380762  0.46884002633447847  0.06603244215869242  1.0000
  H   H20       1.0  0.17614394967549585  0.49672046645297974  0.7360924490298792  1.0000
  H   H21       1.0  0.8236625684342113  0.15362417476313994  0.24608496627355825  1.0000
  H   H22       1.0  0.6770408115841037  0.0747292758912872  0.2522116194033741  1.0000
  H   H23       1.0  0.49198962023960896  0.9592214417841032  0.9694681533223162  1.0000
  H   H24       1.0  0.5998198472024014  0.9460607975618923  0.02807111569030374  1.0000
  H   H25       1.0  0.5735161243049943  0.057046522842710175  0.8880647520589376  1.0000
  H   H26       1.0  0.6146232122301375  0.33804140826043616  0.9210173211580597  1.0000
  H   H27       1.0  0.7605298858441754  0.419976321155447  0.9147435696954003  1.0000
  Zn  Zn1       1.0  0.9252902110004939  0.4117056230998654  0.5703159884517384  1.0000
  Zn  Zn2       1.0  0.11096969505239923  0.40983685174289186  0.5708729968681003  1.0000
  C   C38       1.0  0.018062077007193755  0.40564310405326837  0.8077954649009569  1.0000
  C   C39       1.0  0.01819985696511583  0.41590098900670713  0.333393654018578  1.0000
  C   C40       1.0  0.01818069843371961  0.6479598361689625  0.5654263956010099  1.0000
  C   C41       1.0  0.01808117183310753  0.17358269725808895  0.5757627923233495  1.0000
  O   O2        1.0  0.08864914027827203  0.41693202057531314  0.3819921223840783  1.0000
  O   O3        1.0  0.08853922566266825  0.4031927384832084  0.7596193791516782  1.0000
  O   O4        1.0  0.08863406367839177  0.5988665739974611  0.5639046380803141  1.0000
  O   O5        1.0  0.08855423893296827  0.2212581949703034  0.5777067658886414  1.0000
  O   O6        1.0  0.9477056037566316  0.6002842805115863  0.5634822192342864  1.0000
  O   O7        1.0  0.9476107660830979  0.40461200526938956  0.7591968911039151  1.0000
  O   O8        1.0  0.9477206811995518  0.41835124180801525  0.3815680728970574  1.0000
  O   O9        1.0  0.947625779820535  0.2226774069328954  0.5772828137715109  1.0000
