data_image0
_chemical_formula_structural       NC9NC3OH6C6FH5C7OH4Zn2C4O8
_chemical_formula_sum              "N2 C29 O10 H15 F1 Zn2"
_cell_length_a       15.78231758774541
_cell_length_b       9.275642734913905
_cell_length_c       9.274081674992354
_cell_angle_alpha    85.99194240723541
_cell_angle_beta     89.75780300142802
_cell_angle_gamma    90.23470761467162

_space_group_name_H-M_alt    "P 1"
_space_group_IT_number       1

loop_
  _space_group_symop_operation_xyz
  'x, y, z'

loop_
  _atom_site_type_symbol
  _atom_site_label
  _atom_site_symmetry_multiplicity
  _atom_site_fract_x
  _atom_site_fract_y
  _atom_site_fract_z
  _atom_site_occupancy
  N   N1        1.0  0.8128491197373264  0.5551984385177611  0.41059366188467306  1.0000
  C   C1        1.0  0.7636650258796033  0.464306799943546  0.43744833686106044  1.0000
  C   C2        1.0  0.7026013366738643  0.35148818675109017  0.47078190497405653  1.0000
  C   C3        1.0  0.7212475292239544  0.20976903764218788  0.5125661060127029  1.0000
  C   C4        1.0  0.6440240897922074  0.1410871324038001  0.5328991054133524  1.0000
  C   C5        1.0  0.582995533369139  0.245975933296023  0.50201982899753  1.0000
  C   C6        1.0  0.4897651626806283  0.22658451061150633  0.5078307811717806  1.0000
  C   C7        1.0  0.4368732646415263  0.345487470478004  0.47264209180996325  1.0000
  C   C8        1.0  0.34855245664397894  0.3295870400586756  0.4774148805148457  1.0000
  C   C9        1.0  0.29498891601485755  0.4519494611310096  0.4411932057575803  1.0000
  N   N2        1.0  0.2519366155748023  0.5503130479566545  0.41207422351829714  1.0000
  C   C10       1.0  0.3124409820985054  0.19460669962487165  0.5174309870848564  1.0000
  C   C11       1.0  0.36440369557819086  0.07594961166002556  0.552551760503589  1.0000
  C   C12       1.0  0.45253570539882776  0.091413219089032  0.5479086763592996  1.0000
  O   O1        1.0  0.620345647045041  0.37028182633109236  0.46531570850328197  1.0000
  H   H1        1.0  0.7833653585617802  0.16197575025668817  0.5266008025316622  1.0000
  H   H2        1.0  0.6344819495373755  0.028154995293711012  0.5662127359397013  1.0000
  H   H3        1.0  0.46423264999166  0.4505260623120466  0.4414972252420297  1.0000
  H   H4        1.0  0.244227874070463  0.18113984021871657  0.5214709353663192  1.0000
  H   H5        1.0  0.3363191471332971  0.9716291223691466  0.5834841747237962  1.0000
  H   H6        1.0  0.4909476951581492  0.9974285313177239  0.5757359583065336  1.0000
  C   C13       1.0  0.029774827443274296  0.12924645055271333  0.41194486664224095  1.0000
  C   C14       1.0  0.013808001057599151  0.21157383524844486  0.2816799509980814  1.0000
  C   C15       1.0  0.005831790406916948  0.14522640895544897  0.1518866093442015  1.0000
  C   C16       1.0  0.01376665479507077  0.9958308476185983  0.15006458822559998  1.0000
  C   C17       1.0  0.028208867876696065  0.9119129271199684  0.27830806542606346  1.0000
  C   C18       1.0  0.035018901161564676  0.9762539754229872  0.41073548804438986  1.0000
  F   F1        1.0  0.9913743153990868  0.22637305909350247  0.02716268809100386  1.0000
  H   H7        1.0  0.11625651208982773  0.2103058930959441  0.7341866266234403  1.0000
  H   H8        1.0  0.009488129417952075  0.32823080028908036  0.2798207125871428  1.0000
  H   H9        1.0  0.007915417780080647  0.9445341558759947  0.049239539577786484  1.0000
  H   H10       1.0  0.03204822240032442  0.7956748996225375  0.27435966121466865  1.0000
  H   H11       1.0  0.0898535472223913  0.6801722029337588  0.6295105304479307  1.0000
  C   C19       1.0  0.033803316263136825  0.5489537352055807  0.9880806775278448  1.0000
  C   C20       1.0  0.10300158761249163  0.6109535779568183  0.05674915370384559  1.0000
  C   C21       1.0  0.1674677513803975  0.6836462257874903  0.9763772316800324  1.0000
  C   C22       1.0  0.1627208795864038  0.6947303323055104  0.8252225445129447  1.0000
  C   C23       1.0  0.09529293320564153  0.6318884268150808  0.7553584015987953  1.0000
  C   C24       1.0  0.030990397774697236  0.5565466837749068  0.8345996533486577  1.0000
  C   C25       1.0  0.2386593375759184  0.748495012281202  0.05196712012863092  1.0000
  O   O2        1.0  0.2973831647990002  0.8150380705872765  0.9827280626854399  1.0000
  H   H12       1.0  0.8324797080799601  0.45750293641681844  0.09890635249054247  1.0000
  H   H13       1.0  0.21158252668393263  0.7508324451189854  0.7606973798918988  1.0000
  H   H14       1.0  0.8967471209834937  0.4890351522058065  0.5591626115617792  1.0000
  H   H15       1.0  0.24107256985480252  0.7392990439194435  0.168895728570361  1.0000
  Zn  Zn1       1.0  0.9395602310930093  0.5537848426377983  0.411029242059733  1.0000
  Zn  Zn2       1.0  0.1252253636987144  0.5517149788330871  0.4116504425938233  1.0000
  C   C26       1.0  0.03148463318496873  0.5493661262037581  0.6745976720279114  1.0000
  C   C27       1.0  0.03330299986029758  0.556135493616491  0.1480821582786982  1.0000
  C   C28       1.0  0.03404236848899833  0.8161000576560932  0.40522046046239657  1.0000
  C   C29       1.0  0.03074519021869392  0.2893998308472716  0.4174594489502009  1.0000
  O   O3        1.0  0.1035940003727489  0.5577539630257772  0.2020158681989735  1.0000
  O   O4        1.0  0.10210916696425192  0.5461755863588966  0.6211350255825329  1.0000
  O   O5        1.0  0.10417361576877354  0.7615666333494481  0.40361101603586463  1.0000
  O   O6        1.0  0.1015294886362792  0.34236292608894764  0.41953976944837257  1.0000
  O   O7        1.0  0.9632560427970818  0.7631368960897824  0.40313991498561497  1.0000
  O   O8        1.0  0.961191604971772  0.5477475811239607  0.6206638452067265  1.0000
  O   O9        1.0  0.9626764438838025  0.559325891990017  0.20154295498594557  1.0000
  O   O10       1.0  0.9606119317209177  0.34393484570731103  0.4190669643130454  1.0000
