data_image0
_chemical_formula_structural       NC9NC3OH6C8H10C6NCOH6Zn2C4O8
_chemical_formula_sum              "N3 C31 O10 H22 Zn2"
_cell_length_a       15.78231758774541
_cell_length_b       9.275653711864159
_cell_length_c       10.29962270195845
_cell_angle_alpha    85.7624493108624
_cell_angle_beta     90.10253899755935
_cell_angle_gamma    89.08352321082864

_space_group_name_H-M_alt    "P 1"
_space_group_IT_number       1

loop_
  _space_group_symop_operation_xyz
  'x, y, z'

loop_
  _atom_site_type_symbol
  _atom_site_label
  _atom_site_symmetry_multiplicity
  _atom_site_fract_x
  _atom_site_fract_y
  _atom_site_fract_z
  _atom_site_occupancy
  N   N1        1.0  0.7887465134354217  0.5685655918398016  0.5744469985291765  1.0000
  C   C1        1.0  0.7407321855344249  0.4774631194110741  0.5982654126267877  1.0000
  C   C2        1.0  0.6811204615837688  0.3643828067978472  0.6278302044638627  1.0000
  C   C3        1.0  0.7015902469923768  0.22233568247608845  0.6648889401252261  1.0000
  C   C4        1.0  0.6252508825931715  0.15349411276591507  0.6829236028908556  1.0000
  C   C5        1.0  0.5628728196274009  0.2586252570301797  0.6555371761082556  1.0000
  C   C6        1.0  0.4698923097125242  0.23918814884579365  0.6606922711701844  1.0000
  C   C7        1.0  0.4154699336817481  0.35836741773281955  0.6294812971525796  1.0000
  C   C8        1.0  0.3273540334356025  0.34242945763744637  0.6337155119842204  1.0000
  C   C9        1.0  0.27221545262501506  0.4650763061567213  0.6015881923195656  1.0000
  N   N2        1.0  0.22789701806896304  0.5636685482993593  0.575760684796673  1.0000
  C   C10       1.0  0.2929802304538494  0.2071348477767636  0.669209185816263  1.0000
  C   C11       1.0  0.3464702746858284  0.08820198027385516  0.7003599889797942  1.0000
  C   C12       1.0  0.43440300094273926  0.1037020985742607  0.6962408229670061  1.0000
  O   O1        1.0  0.5986232128062484  0.383219292963336  0.622983244538161  1.0000
  H   H1        1.0  0.7643228590868267  0.17443227766270142  0.677335627184726  1.0000
  H   H2        1.0  0.6171619751777307  0.04030047483328181  0.71246996118979  1.0000
  H   H3        1.0  0.44147708403944036  0.4636506121792329  0.601856203921999  1.0000
  H   H4        1.0  0.2249406603706115  0.1936362230379647  0.6727932232284093  1.0000
  H   H5        1.0  0.3197287183040618  0.9836385565392969  0.7277966463183057  1.0000
  H   H6        1.0  0.4740247763698486  0.00949889488207667  0.7209227024550795  1.0000
  C   C13       1.0  0.01070381062602065  0.14270093457041  0.5738990835827487  1.0000
  C   C14       1.0  0.9907926606153051  0.22628624173955128  0.45801898579419453  1.0000
  C   C15       1.0  0.9632422824397884  0.1613256266172698  0.347141965419685  1.0000
  C   C16       1.0  0.9568633401047814  0.010804569376297039  0.3512723749516633  1.0000
  C   C17       1.0  0.977688406584218  0.9260206833633705  0.46465249781571033  1.0000
  C   C18       1.0  0.005947862012983574  0.9895220096809028  0.5763197796637255  1.0000
  C   C19       1.0  0.9433692501087553  0.25228977222423854  0.22334606910750154  1.0000
  C   C20       1.0  0.022617282655718482  0.27321421839280724  0.14001321734951389  1.0000
  H   H7        1.0  0.0876616820319342  0.40645298145558817  0.7541279810350558  1.0000
  H   H8        1.0  0.9948492259452653  0.3430584036984061  0.4545324211258111  1.0000
  H   H9        1.0  0.9365542947432993  0.9587588106092496  0.2660294189555381  1.0000
  H   H10       1.0  0.9737696926607945  0.8095929712297555  0.46384806696168956  1.0000
  H   H11       1.0  0.013966388527883553  0.6904042977578169  0.7904957384728416  1.0000
  H   H12       1.0  0.893957751667801  0.19993956709733673  0.16672776690985947  1.0000
  H   H13       1.0  0.9176576676942855  0.3597483633828686  0.24628707477528725  1.0000
  H   H14       1.0  0.07200971053520128  0.32887965364691474  0.19377598435801602  1.0000
  H   H15       1.0  0.04804626988446789  0.16701431029973168  0.11336708048593636  1.0000
  H   H16       1.0  0.00661704063845181  0.34041828067712604  0.04932655417912124  1.0000
  C   C21       1.0  0.00824599602299458  0.565971828513192  0.19375201664643993  1.0000
  C   C22       1.0  0.9193939171728529  0.5780851277286159  0.1914246710900318  1.0000
  C   C23       1.0  0.8747728628166229  0.5865470094694221  0.07329683200809067  1.0000
  C   C24       1.0  0.9195795461970523  0.5783920817577148  0.9562539224723463  1.0000
  C   C25       1.0  0.008405683815543071  0.5662511461214323  0.9564668285146225  1.0000
  C   C26       1.0  0.0522542719154242  0.5606883003577159  0.0757199844466867  1.0000
  N   N3        1.0  0.783753144947857  0.5967050559157272  0.07493348405741651  1.0000
  C   C27       1.0  0.733599033013527  0.6759580032860539  0.9769362212060306  1.0000
  O   O2        1.0  0.7672656757838805  0.7589238539333059  0.8901666354376588  1.0000
  H   H17       1.0  0.1757917261096773  0.5415797320737559  0.40549650264093945  1.0000
  H   H18       1.0  0.8843848910728442  0.5822272415346008  0.28148639569903344  1.0000
  H   H19       1.0  0.8851890300897423  0.5785034157195041  0.865298037935708  1.0000
  H   H20       1.0  0.12075040380447644  0.551368924738342  0.0766367587883694  1.0000
  H   H21       1.0  0.7518292544146938  0.5522325683079552  0.15680639466200552  1.0000
  H   H22       1.0  0.6653121670628085  0.6677272813242521  0.9796009251326345  1.0000
  Zn  Zn1       1.0  0.9154758824539767  0.5671485621572321  0.5748335822398738  1.0000
  Zn  Zn2       1.0  0.101167688872749  0.5650738137726965  0.5753846834450618  1.0000
  C   C28       1.0  0.008405868827563882  0.5604542800558987  0.8122810069342874  1.0000
  C   C29       1.0  0.008239720057094278  0.5717698925473234  0.3379373974318674  1.0000
  C   C30       1.0  0.006841399190669941  0.8294529823984329  0.570687208588499  1.0000
  C   C31       1.0  0.009804136074015757  0.3027694586070213  0.5795312598741087  1.0000
  O   O3        1.0  0.07870672190891326  0.5729221291957445  0.3865364504267035  1.0000
  O   O4        1.0  0.07887465746239486  0.5577262695129763  0.764099850058388  1.0000
  O   O5        1.0  0.07761037877109549  0.7749461347159392  0.569011150044326  1.0000
  O   O6        1.0  0.07997093715786247  0.35570227497959234  0.5816250529104621  1.0000
  O   O7        1.0  0.9366725708013531  0.7765201016599128  0.568593212579583  1.0000
  O   O8        1.0  0.9379368397451149  0.5593019687642942  0.7636818483023026  1.0000
  O   O9        1.0  0.9377689042032822  0.5744977776290474  0.386116887173497  1.0000
  O   O10       1.0  0.9390331195270714  0.3572779131356614  0.5812055869926693  1.0000
