data_image0
_chemical_formula_structural       NC8OC7NH8C12H10C6H6Zn2C4O8
_chemical_formula_sum              "N2 C37 O9 H24 Zn2"
_cell_length_a       19.090736677544083
_cell_length_b       13.024581838241811
_cell_length_c       10.681121600428288
_cell_angle_alpha    84.14087780974744
_cell_angle_beta     89.99895426590072
_cell_angle_gamma    93.7331542246462

_space_group_name_H-M_alt    "P 1"
_space_group_IT_number       1

loop_
  _space_group_symop_operation_xyz
  'x, y, z'

loop_
  _atom_site_type_symbol
  _atom_site_label
  _atom_site_symmetry_multiplicity
  _atom_site_fract_x
  _atom_site_fract_y
  _atom_site_fract_z
  _atom_site_occupancy
  N   N1        1.0  0.7097431774257855  0.12887144722986868  0.5842198904790559  1.0000
  C   C1        1.0  0.6580674208041215  0.17073437720326057  0.5829349772153227  1.0000
  C   C2        1.0  0.5937885408239107  0.22280566052584133  0.5813373468829364  1.0000
  C   C3        1.0  0.5345535868577712  0.1828411128475341  0.5208761431489097  1.0000
  C   C4        1.0  0.4721066983171671  0.23338823456275054  0.5192168247252595  1.0000
  C   C5        1.0  0.4680029095277399  0.324223402366282  0.5790071112902857  1.0000
  C   C6        1.0  0.5280408899755439  0.36450099782217804  0.6381050613254651  1.0000
  C   C7        1.0  0.5904455018844025  0.31383112356792553  0.6396950691926298  1.0000
  C   C8        1.0  0.4023793567864664  0.37940160725907696  0.5764663496339726  1.0000
  O   O1        1.0  0.4067010688720755  0.47668955363342  0.573457410029333  1.0000
  C   C9        1.0  0.33185833745701504  0.3243293083068233  0.5773355601252339  1.0000
  C   C10       1.0  0.3193312522764022  0.22554819003527615  0.6429923947662901  1.0000
  C   C11       1.0  0.25239415189056813  0.17501312294853633  0.6444591807359441  1.0000
  C   C12       1.0  0.19705801554901198  0.22280917936231173  0.5812818807405391  1.0000
  C   C13       1.0  0.2088331708941514  0.32159966524614936  0.517051775730468  1.0000
  C   C14       1.0  0.2757393103127492  0.37226662489040396  0.5155073083117307  1.0000
  C   C15       1.0  0.1281528626819712  0.17073638338916597  0.582904838432005  1.0000
  N   N2        1.0  0.07275783576925458  0.1288721324636013  0.5842094885393039  1.0000
  H   H1        1.0  0.5367122248730385  0.11288092120939755  0.47453859235582607  1.0000
  H   H2        1.0  0.4273214905950895  0.2020831028679173  0.4699811279361474  1.0000
  H   H3        1.0  0.5264856227488407  0.4347294161680973  0.6840153541672473  1.0000
  H   H4        1.0  0.6360573154140917  0.3456690802840765  0.6863696813238687  1.0000
  H   H5        1.0  0.3610518076973372  0.18787050023796462  0.6943632050347999  1.0000
  H   H6        1.0  0.24374639641517273  0.09889636861875122  0.695315887566158  1.0000
  H   H7        1.0  0.16631885788286924  0.35948727618779536  0.46821928064868357  1.0000
  H   H8        1.0  0.2838052676196454  0.44859826048061385  0.465062374670591  1.0000
  C   C16       1.0  0.8777923751272483  0.8259658551398659  0.593461383396894  1.0000
  C   C17       1.0  0.8466755189072573  0.7634629399471227  0.5061154073804157  1.0000
  C   C18       1.0  0.8698361104718063  0.6651707224674293  0.4949435082193154  1.0000
  C   C19       1.0  0.9241134911568222  0.6273408198798406  0.5714698474172946  1.0000
  C   C20       1.0  0.9557492013994608  0.68988227064697  0.6577724022250167  1.0000
  C   C21       1.0  0.9326394995676927  0.7882058095596092  0.6690256758695887  1.0000
  C   C22       1.0  0.9494502329139498  0.523906776771012  0.5582596804651421  1.0000
  C   C23       1.0  0.01985912292956993  0.51823963331541  0.5224636839685124  1.0000
  C   C24       1.0  0.045656809896793105  0.42381497543927216  0.5008057889666622  1.0000
  C   C25       1.0  0.0015543724835109796  0.33381420575240994  0.5142930254937081  1.0000
  C   C26       1.0  0.9316801866847053  0.337605211182585  0.5510138293051885  1.0000
  C   C27       1.0  0.9047150226802494  0.4317697815538566  0.5749790660138789  1.0000
  H   H9        1.0  0.8683847683124295  0.06281345324782261  0.7014756286589021  1.0000
  H   H10       1.0  0.8045286308557393  0.790547813415467  0.4461816284461262  1.0000
  H   H11       1.0  0.8455279098556272  0.6185196660272329  0.4264749482332815  1.0000
  H   H12       1.0  0.9980709556585252  0.6622066566849597  0.7169273852440634  1.0000
  H   H13       1.0  0.9577903690857644  0.8345866894102446  0.7368749080897101  1.0000
  H   H14       1.0  0.05463970942638819  0.5876479040101672  0.5090792349042126  1.0000
  H   H15       1.0  0.0998532300274293  0.4205708200981795  0.4725610257220465  1.0000
  H   H16       1.0  0.02166187728161662  0.2606950978136486  0.4970485591363656  1.0000
  H   H17       1.0  0.8989740041312407  0.26612110546926  0.5629347490709782  1.0000
  H   H18       1.0  0.7329634879234341  0.3467133700175608  0.6269323780458946  1.0000
  C   C28       1.0  0.8912537070519174  0.12886780212883275  0.2164749830403856  1.0000
  C   C29       1.0  0.8385678473351139  0.07149994555091335  0.15680415269012582  1.0000
  C   C30       1.0  0.8385678065409718  0.07150001169096455  0.025922010720632604  1.0000
  C   C31       1.0  0.8912536542332735  0.12886785269232237  0.9519654171756766  1.0000
  C   C32       1.0  0.9438960200759139  0.18618816849771475  0.011637118774114887  1.0000
  C   C33       1.0  0.9438960104032038  0.18618815250298446  0.1425294179253973  1.0000
  H   H19       1.0  0.9445331020330637  0.1868824680431238  0.5079613186451906  1.0000
  H   H20       1.0  0.7972701831265901  0.026532308238872204  0.21121401954525562  1.0000
  H   H21       1.0  0.7972701706552382  0.026532356792897237  0.9827099888388178  1.0000
  H   H22       1.0  0.9851990796093685  0.2311617313865486  0.9572714063577553  1.0000
  H   H23       1.0  0.9851990427102489  0.2311616952269309  0.1856957749463588  1.0000
  H   H24       1.0  0.944533304679454  0.18688210866765886  0.6460323038896032  1.0000
  Zn  Zn1       1.0  0.8145012523782813  0.12886888244797226  0.5842241949475089  1.0000
  Zn  Zn2       1.0  0.9679994031895799  0.1288662532383492  0.5842156655875672  1.0000
  C   C34       1.0  0.8910694996793915  0.1247585804729308  0.8130673610430903  1.0000
  C   C35       1.0  0.8914328899232061  0.13297785667403406  0.35537258260492854  1.0000
  C   C36       1.0  0.8996224530942551  0.31725993987657647  0.5734822960251063  1.0000
  C   C37       1.0  0.8828798290548623  0.9404752579859714  0.5949577522001319  1.0000
  O   O2        1.0  0.9497445736138679  0.13435173068430212  0.4019847863080707  1.0000
  O   O3        1.0  0.9492593261670046  0.12338193279936986  0.7664483470025595  1.0000
  O   O4        1.0  0.9561651589548837  0.27882921504327585  0.5729816792184035  1.0000
  O   O5        1.0  0.9428386887753963  0.9789044558201383  0.5954513599738767  1.0000
  O   O6        1.0  0.8396619144111293  0.27883067986820365  0.5729885005574886  1.0000
  O   O7        1.0  0.8327561366953952  0.1233846369107348  0.7664550637607157  1.0000
  O   O8        1.0  0.833241382591469  0.13435439885062506  0.401989998540279  1.0000
  O   O9        1.0  0.8263354974222544  0.9789071166087389  0.5954566663207252  1.0000
