data_image0
_chemical_formula_structural       NC9NC3OH6C8H6C6OCH7Zn2C4O8
_chemical_formula_sum              "N2 C31 O10 H19 Zn2"
_cell_length_a       15.78231758774541
_cell_length_b       9.27514070457351
_cell_length_c       9.273891588657152
_cell_angle_alpha    86.21671130185581
_cell_angle_beta     89.76748324947235
_cell_angle_gamma    90.22379856908987

_space_group_name_H-M_alt    "P 1"
_space_group_IT_number       1

loop_
  _space_group_symop_operation_xyz
  'x, y, z'

loop_
  _atom_site_type_symbol
  _atom_site_label
  _atom_site_symmetry_multiplicity
  _atom_site_fract_x
  _atom_site_fract_y
  _atom_site_fract_z
  _atom_site_occupancy
  N   N1        1.0  0.8125017524447782  0.5547310611272609  0.41654826818670543  1.0000
  C   C1        1.0  0.7633313891431324  0.4638607323695747  0.44305402296992313  1.0000
  C   C2        1.0  0.7022847429332667  0.3510685698738885  0.47595449632924214  1.0000
  C   C3        1.0  0.720952335559251  0.20938263925176312  0.5171946563119529  1.0000
  C   C4        1.0  0.643739275584698  0.1407168403629213  0.5372639961129033  1.0000
  C   C5        1.0  0.5826948851649999  0.2455810598542738  0.5067873745544076  1.0000
  C   C6        1.0  0.4894674519634387  0.2261941909675389  0.5125238869146054  1.0000
  C   C7        1.0  0.4365575860792434  0.34506926841923113  0.47779164846376593  1.0000
  C   C8        1.0  0.34823918753268196  0.3291725727128507  0.48250339868930686  1.0000
  C   C9        1.0  0.29465715537399445  0.45150629930177466  0.4467514550773739  1.0000
  N   N2        1.0  0.2515899899892712  0.5498468193375565  0.4180100760064176  1.0000
  C   C10       1.0  0.31214811724783403  0.19422389110674643  0.5220013366146798  1.0000
  C   C11       1.0  0.36412876190049287  0.07559462834136065  0.5566666030552312  1.0000
  C   C12       1.0  0.45225842832270713  0.09105460353022844  0.5520828804972238  1.0000
  O   O1        1.0  0.6200262228519242  0.3698578110987772  0.4705604471859932  1.0000
  H   H1        1.0  0.7830773762164348  0.16160054930445478  0.5310458799461135  1.0000
  H   H2        1.0  0.6342141901538315  0.02781117570211534  0.5701440953457786  1.0000
  H   H3        1.0  0.46390109278093195  0.450083223604953  0.447050008727314  1.0000
  H   H4        1.0  0.243937049667732  0.18076019459853  0.5259895883624066  1.0000
  H   H5        1.0  0.33605998359562905  0.9712986073117671  0.5871985471345309  1.0000
  H   H6        1.0  0.4906846217348744  0.9970919560920619  0.5795493692812788  1.0000
  C   C13       1.0  0.029479418360735202  0.1288676166029139  0.41626258644122704  1.0000
  C   C14       1.0  0.04200172522651144  0.21097804165991768  0.2848196017521467  1.0000
  C   C15       1.0  0.061896064069997675  0.1442968198634569  0.15856727895914546  1.0000
  C   C16       1.0  0.06974209256171421  0.9943044733653527  0.16133359996185193  1.0000
  C   C17       1.0  0.05614230156535438  0.9106037757486221  0.29041067107184015  1.0000
  C   C18       1.0  0.03462027949115587  0.9756992135403465  0.4183082399391349  1.0000
  C   C19       1.0  0.0908053457592215  0.9258228224065473  0.031056204841136026  1.0000
  C   C20       1.0  0.10844124759634523  0.8684712978556052  0.9219860910730645  1.0000
  H   H7        1.0  0.042195062854547966  0.20844273066608213  0.770476028110902  1.0000
  H   H8        1.0  0.0383727813412531  0.32780325192415405  0.2803925637216931  1.0000
  H   H9        1.0  0.07198846714765117  0.2100220008712903  0.05895498935398935  1.0000
  H   H10       1.0  0.06041388673771262  0.7939474145175661  0.2902468331375596  1.0000
  H   H11       1.0  0.0399292559239326  0.6792775054225887  0.6569520805577271  1.0000
  H   H12       1.0  0.12392178592581343  0.8181270098703031  0.8262454359597768  1.0000
  C   C21       1.0  0.0334146668315556  0.5484492298749677  0.9940054594335663  1.0000
  C   C22       1.0  0.10316919797678947  0.6085795046698632  0.06295726924846101  1.0000
  C   C23       1.0  0.1681832157741008  0.679530129647052  0.9835356421761703  1.0000
  C   C24       1.0  0.1636758228050449  0.6907092131993179  0.8321066799988599  1.0000
  C   C25       1.0  0.09569599831243521  0.6296860754609346  0.76181648925493  1.0000
  C   C26       1.0  0.030685032767660884  0.5561175457269283  0.8405653074377191  1.0000
  O   O2        1.0  0.23561314363699581  0.7379108474766122  0.059108368188566913  1.0000
  C   C27       1.0  0.3058434084979602  0.8130185680738877  0.9924475777057068  1.0000
  H   H13       1.0  0.831349888646214  0.4621309828390108  0.10413785408718357  1.0000
  H   H14       1.0  0.21281659663967045  0.7452260866610665  0.7674800323832769  1.0000
  H   H15       1.0  0.09505747468484693  0.6371249754025206  0.6447509882853981  1.0000
  H   H16       1.0  0.8958965054696932  0.4922728314061387  0.5645174108240192  1.0000
  H   H17       1.0  0.2836927787777943  0.9108454137282687  0.928211984899996  1.0000
  H   H18       1.0  0.3407361273574858  0.7410648631883581  0.9219796570565353  1.0000
  H   H19       1.0  0.3494230235750506  0.8470010165135562  0.0775187638410677  1.0000
  Zn  Zn1       1.0  0.9392130791287834  0.5533177982989237  0.41697842201350865  1.0000
  Zn  Zn2       1.0  0.1248785253781699  0.5512484206568743  0.4175916767650796  1.0000
  C   C28       1.0  0.031164245048335586  0.5489239685952455  0.6805335057342012  1.0000
  C   C29       1.0  0.03292939750785595  0.555644048349855  0.15403674561038527  1.0000
  C   C30       1.0  0.03366272375349497  0.8155780327715947  0.4121776202237524  1.0000
  C   C31       1.0  0.03043084468363498  0.2889882532232083  0.42239270357457737  1.0000
  O   O3        1.0  0.10322556775005505  0.5572670866390017  0.20797741894201693  1.0000
  O   O4        1.0  0.10178384723785933  0.5457292290457614  0.6270578610113522  1.0000
  O   O5        1.0  0.10380044573527986  0.7610557823319125  0.41035858528355673  1.0000
  O   O6        1.0  0.10120890630868785  0.341940543394637  0.42467658640968575  1.0000
  O   O7        1.0  0.9628826348397951  0.7626256762688395  0.40989351215205017  1.0000
  O   O8        1.0  0.9608660471029649  0.5473008546406637  0.6265927152092512  1.0000
  O   O9        1.0  0.9623077729542747  0.5588386462891515  0.20751054002593072  1.0000
  O   O10       1.0  0.9602911110983833  0.34351209371067837  0.4242098155368754  1.0000
