data_image0
_chemical_formula_structural       NC9NC3SH6C7OCH9C8NH11Zn2C4O8
_chemical_formula_sum              "N3 C32 S1 H26 O9 Zn2"
_cell_length_a       16.77567553997237
_cell_length_b       10.30083208314754
_cell_length_c       9.27565297233854
_cell_angle_alpha    85.92062759394871
_cell_angle_beta     90.8258093540976
_cell_angle_gamma    90.88775763152196

_space_group_name_H-M_alt    "P 1"
_space_group_IT_number       1

loop_
  _space_group_symop_operation_xyz
  'x, y, z'

loop_
  _atom_site_type_symbol
  _atom_site_label
  _atom_site_symmetry_multiplicity
  _atom_site_fract_x
  _atom_site_fract_y
  _atom_site_fract_z
  _atom_site_occupancy
  N   N1        1.0  0.7439805008404076  0.4300841025051555  0.41731710054608806  1.0000
  C   C1        1.0  0.6894239306056629  0.4796919858768698  0.46347898773172913  1.0000
  C   C2        1.0  0.6217184128446279  0.5412520863217627  0.5207623577489426  1.0000
  C   C3        1.0  0.6242938363804403  0.629983587245355  0.626246688194807  1.0000
  C   C4        1.0  0.5488021264169184  0.6736685303753477  0.6612130099206843  1.0000
  C   C5        1.0  0.4864707230914698  0.6191449513226336  0.5828476373218954  1.0000
  C   C6        1.0  0.4000297081552796  0.645281798255642  0.5948857928248079  1.0000
  C   C7        1.0  0.3429437867612952  0.5653018540993295  0.5302090689783914  1.0000
  C   C8        1.0  0.2613476139203729  0.5894211815254924  0.5410749029295461  1.0000
  C   C9        1.0  0.2035878083144085  0.5067633234063361  0.474850049301792  1.0000
  N   N2        1.0  0.1571659887452296  0.440318252427715  0.42161505179972014  1.0000
  C   C10       1.0  0.2360067702541059  0.6938328702197587  0.6164385562230075  1.0000
  C   C11       1.0  0.2919988771457894  0.7739684568418685  0.6806028948201954  1.0000
  C   C12       1.0  0.3734387570739677  0.7502143628628677  0.6700639620171649  1.0000
  S   S1        1.0  0.5265870909498388  0.5163748128450503  0.4706445267494242  1.0000
  H   H1        1.0  0.6789093821771666  0.66215473473935  0.6770398511537377  1.0000
  H   H2        1.0  0.5408777352552517  0.7420657348121373  0.7427602051199413  1.0000
  H   H3        1.0  0.36149915899041263  0.48365159038214794  0.4720125492700502  1.0000
  H   H4        1.0  0.1730596185308071  0.7133455607902467  0.6254113860413939  1.0000
  H   H5        1.0  0.2722613946634778  0.8550050678298289  0.7384471713477263  1.0000
  H   H6        1.0  0.4150857012247575  0.8151558998390145  0.7197292169938014  1.0000
  C   C13       1.0  0.9505999511368494  0.053866015740956064  0.419617619445243  1.0000
  C   C14       1.0  0.9277931361167544  0.06183894465686036  0.2730229976147356  1.0000
  C   C15       1.0  0.9153805216218304  0.9486859862916563  0.19963233564018856  1.0000
  C   C16       1.0  0.9277339861732093  0.8265762624197549  0.27264155100025245  1.0000
  C   C17       1.0  0.9505542462501536  0.8165266337012168  0.4193271435804766  1.0000
  C   C18       1.0  0.9616667197948551  0.9306964552916156  0.49203515903950507  1.0000
  C   C19       1.0  0.8932591656398307  0.9584641261138132  0.04174221659840715  1.0000
  O   O1        1.0  0.9637260814580023  0.9656312434847296  0.9600770107992994  1.0000
  C   C20       1.0  0.9437610772167364  0.9748760885588017  0.8115779000524794  1.0000
  H   H7        1.0  0.9196059602126614  0.15597596592149254  0.21531630510000688  1.0000
  H   H8        1.0  0.9195054792939629  0.7395632791224344  0.21467298787447153  1.0000
  H   H9        1.0  0.9792630784823914  0.9237846739360875  0.6050911156918088  1.0000
  H   H10       1.0  0.9944755359598464  0.5903681877004312  0.6956079301504186  1.0000
  H   H11       1.0  0.8564513093103421  0.0466791908543005  0.01726328494939433  1.0000
  H   H12       1.0  0.8564819321916384  0.8715885019534982  0.016933100813340207  1.0000
  H   H13       1.0  0.9996611929663294  0.9804192420140564  0.7488496849788584  1.0000
  H   H14       1.0  0.9096758114465319  0.06475977943614053  0.7811655086798197  1.0000
  H   H15       1.0  0.9096881685380747  0.8872759296114687  0.7808084595187132  1.0000
  C   C21       1.0  0.948802337813714  0.4326214450243806  0.9961841327539616  1.0000
  C   C22       1.0  0.8970839028481997  0.5162836099889223  0.0617609778142274  1.0000
  C   C23       1.0  0.8516601874479593  0.6076792593861817  0.97855324628067  1.0000
  C   C24       1.0  0.8568780356903513  0.6141350321072133  0.8278197406461518  1.0000
  C   C25       1.0  0.9068410313172282  0.5304871912028831  0.7608165359886958  1.0000
  C   C26       1.0  0.9523518578630475  0.43777121580476486  0.8427605941788983  1.0000
  C   C27       1.0  0.7956970723499026  0.6951334456173234  0.050481053770383706  1.0000
  C   C28       1.0  0.713724730136353  0.6296551019740728  0.07043985605665726  1.0000
  N   N3        1.0  0.6596450036461421  0.7160723485183518  0.13805183241601493  1.0000
  H   H16       1.0  0.007252422363169144  0.24113463209309163  0.2934727459518307  1.0000
  H   H17       1.0  0.8932917149294198  0.5125767951766056  0.1785504357203469  1.0000
  H   H18       1.0  0.8215211400361202  0.6832048182658684  0.7618421558025208  1.0000
  H   H19       1.0  0.9082801311495096  0.5360999399509305  0.6438095111549424  1.0000
  H   H20       1.0  0.061695791267820425  0.32154292655150196  0.573463092922252  1.0000
  H   H21       1.0  0.820664054453453  0.7185692901553236  0.15744638766058427  1.0000
  H   H22       1.0  0.7893086288544406  0.7887280776269183  0.984069450531472  1.0000
  H   H23       1.0  0.6887996470203148  0.6072636631322835  0.9630574068702643  1.0000
  H   H24       1.0  0.7193583548982578  0.5367888756890228  0.13872649906633328  1.0000
  H   H25       1.0  0.6033351944051281  0.6710700480282149  0.1418855033237083  1.0000
  H   H26       1.0  0.6783141022802156  0.7230343749907409  0.2453634868935084  1.0000
  Zn  Zn1       1.0  0.8632169453711835  0.43303404075009416  0.41856573054992174  1.0000
  Zn  Zn2       1.0  0.037929589516030315  0.43735779277228537  0.4203782632342483  1.0000
  C   C29       1.0  0.9516794332342875  0.4316245243030038  0.682741474359527  1.0000
  C   C30       1.0  0.9494690100045019  0.43876899577038064  0.15620268007064841  1.0000
  C   C31       1.0  0.9505346772761407  0.6723325012296136  0.4136379684353695  1.0000
  C   C32       1.0  0.9506137067611962  0.19805945767079927  0.42530626281979766  1.0000
  O   O2        1.0  0.015995289551929078  0.44246734607627036  0.21059421520315214  1.0000
  O   O3        1.0  0.017756006336397956  0.4312068195769081  0.6297251950299716  1.0000
  O   O4        1.0  0.016830713917019843  0.6255815421110076  0.412422200257311  1.0000
  O   O5        1.0  0.016920521900014363  0.2480926306987279  0.4278971012758801  1.0000
  O   O6        1.0  0.8842259533663163  0.6222992013495348  0.41104689188217924  1.0000
  O   O7        1.0  0.8851512453662641  0.42792603851428945  0.6283498092037367  1.0000
  O   O8        1.0  0.883390521371361  0.43918650922091085  0.20921709636792962  1.0000
  O   O9        1.0  0.8843157541698566  0.24481178521269456  0.42652009051447903  1.0000
