data_image0
_chemical_formula_structural       NC9NC3OH6C6NO2H5C8NH11Zn2C4O8
_chemical_formula_sum              "N4 C30 O11 H22 Zn2"
_cell_length_a       15.78231758774541
_cell_length_b       9.273392599741051
_cell_length_c       9.275652972338538
_cell_angle_alpha    86.06806642986213
_cell_angle_beta     90.52078220685846
_cell_angle_gamma    89.0365174922554

_space_group_name_H-M_alt    "P 1"
_space_group_IT_number       1

loop_
  _space_group_symop_operation_xyz
  'x, y, z'

loop_
  _atom_site_type_symbol
  _atom_site_label
  _atom_site_symmetry_multiplicity
  _atom_site_fract_x
  _atom_site_fract_y
  _atom_site_fract_z
  _atom_site_occupancy
  N   N1        1.0  0.7812906666006624  0.5591725147199023  0.4160964444783337  1.0000
  C   C1        1.0  0.7334326123605988  0.46820569072606144  0.4426279579020882  1.0000
  C   C2        1.0  0.6740148636529303  0.3552937532278959  0.4755604039983521  1.0000
  C   C3        1.0  0.6947279406090716  0.21345758328586495  0.516840726248396  1.0000
  C   C4        1.0  0.6185068346359678  0.1447187684570561  0.5369295308595623  1.0000
  C   C5        1.0  0.5559489017809937  0.24969406923487594  0.5064231849607561  1.0000
  C   C6        1.0  0.46300207765671464  0.230286411905263  0.5121651936397673  1.0000
  C   C7        1.0  0.4083750221779852  0.3492878656941716  0.47739925758802926  1.0000
  C   C8        1.0  0.3202867770728719  0.33337410436055587  0.48211551472117126  1.0000
  C   C9        1.0  0.2649375228646732  0.455837906846446  0.4463288929924305  1.0000
  N   N2        1.0  0.2204497280359412  0.5542829946459704  0.41755963717922695  1.0000
  C   C10       1.0  0.2861456228510461  0.19828178713423392  0.5216517073256375  1.0000
  C   C11       1.0  0.3398399438068915  0.07952639738357425  0.5563506017335023  1.0000
  C   C12       1.0  0.4277457686857078  0.09500297286134485  0.551762496069583  1.0000
  O   O1        1.0  0.5914856684506723  0.37410273303783637  0.4701610295966461  1.0000
  H   H1        1.0  0.7575423607379688  0.16562496645151392  0.5307054936284192  1.0000
  H   H2        1.0  0.610611871318841  0.031693340340622767  0.5698416344775152  1.0000
  H   H3        1.0  0.4342011083931789  0.4544136077865082  0.44662784888992335  1.0000
  H   H4        1.0  0.21812946527528101  0.18480364273716868  0.5256437761727184  1.0000
  H   H5        1.0  0.31327821570682585  0.9751193525210787  0.5869121112618125  1.0000
  H   H6        1.0  0.46752938437520203  0.0009404013843923269  0.5792556206387038  1.0000
  C   C13       1.0  0.0034534205149079305  0.13316431665129658  0.4159302562910361  1.0000
  C   C14       1.0  0.9920807884503368  0.21575101480560677  0.2842256869995148  1.0000
  C   C15       1.0  0.9732510742707207  0.15001074602610598  0.1572738773080007  1.0000
  C   C16       1.0  0.9651735657261693  0.9996929751042891  0.15848516227944187  1.0000
  C   C17       1.0  0.9778635699064109  0.9159164753291964  0.2891890116822029  1.0000
  C   C18       1.0  0.9982951838041444  0.9802800722082423  0.4177382439191255  1.0000
  N   N3        1.0  0.9450065908204561  0.9325217196705752  0.02730246348877818  1.0000
  O   O2        1.0  0.9333226323323105  0.014888532828558404  0.8992999423082177  1.0000
  O   O3        1.0  0.9375454619429199  0.7986730884648207  0.027507713096119428  1.0000
  H   H7        1.0  0.9877589663822332  0.21220090206959785  0.7696385779632231  1.0000
  H   H8        1.0  0.9957664273477647  0.3325236863960386  0.27997944550343146  1.0000
  H   H9        1.0  0.9641550364030667  0.2173623430845597  0.05817936111389809  1.0000
  H   H10       1.0  0.9737751125549029  0.7993667534905095  0.29020139370728715  1.0000
  H   H11       1.0  0.9906191854550657  0.6838901653286135  0.6567984930681139  1.0000
  C   C19       1.0  0.9990049460281218  0.5539320290343341  0.9935512436812838  1.0000
  C   C20       1.0  0.9434663043965423  0.6488934234882378  0.05971661492708403  1.0000
  C   C21       1.0  0.8945673114894285  0.7521970028710407  0.9770750694564053  1.0000
  C   C22       1.0  0.9000707765393148  0.7591623583914135  0.8263231701623863  1.0000
  C   C23       1.0  0.9537432416234856  0.6642859426743346  0.7587436421933478  1.0000
  C   C24       1.0  0.002743681925287285  0.5595124033125813  0.8401172782925337  1.0000
  C   C25       1.0  0.8344910519053594  0.8515373375201871  0.04963124705870903  1.0000
  C   C26       1.0  0.7477908721119222  0.7820334731895315  0.06997789528459752  1.0000
  N   N4        1.0  0.6897236539438909  0.8801479397194617  0.13820233893660228  1.0000
  H   H12       1.0  0.062421914186135956  0.33894114391638214  0.28990804367512424  1.0000
  H   H13       1.0  0.9394599384153125  0.6449253390538572  0.176522150905134  1.0000
  H   H14       1.0  0.8620226689275503  0.8372717325228666  0.7607805961166823  1.0000
  H   H15       1.0  0.9552354406159704  0.6704635982454699  0.6417420874083981  1.0000
  H   H16       1.0  0.11975800703734912  0.42611136906732794  0.5697423681310849  1.0000
  H   H17       1.0  0.8608746305788  0.8765860183957257  0.15648806020418493  1.0000
  H   H18       1.0  0.8270729003111192  0.955747545087587  0.983521403647059  1.0000
  H   H19       1.0  0.7214448359777421  0.7581432019423929  0.9627065498558012  1.0000
  H   H20       1.0  0.7544017503840159  0.6786620301550834  0.1379700125813763  1.0000
  H   H21       1.0  0.6301662725306465  0.8323778339628507  0.14230237265682888  1.0000
  H   H22       1.0  0.7095227785125208  0.8871463639938726  0.24540378862146658  1.0000
  Zn  Zn1       1.0  0.9080225419189164  0.5577577068867501  0.416526999093197  1.0000
  Zn  Zn2       1.0  0.09371794794601107  0.555686107958413  0.41714084053760137  1.0000
  C   C27       1.0  0.0020700571597456158  0.5527115135759737  0.6800859071559024  1.0000
  C   C28       1.0  0.9996724500362517  0.5607340994958483  0.1535820845378828  1.0000
  C   C29       1.0  0.9992404697484145  0.8201193754891942  0.411652560440781  1.0000
  C   C30       1.0  0.002501984974249805  0.29332450586217385  0.4220155041931606  1.0000
  O   O4        1.0  0.0703669476233892  0.5622244828862702  0.2075228328278007  1.0000
  O   O5        1.0  0.07231408084122637  0.54964774367868  0.6266106330632226  1.0000
  O   O6        1.0  0.07002820986549513  0.7655829944851086  0.4098488064409491  1.0000
  O   O7        1.0  0.07265275469372745  0.34628924239241154  0.42428455118606534  1.0000
  O   O8        1.0  0.929087671802429  0.7671545731612067  0.4093832882276809  1.0000
  O   O9        1.0  0.9313735318827213  0.5512210547836875  0.6261450416927454  1.0000
  O   O10       1.0  0.9294263913737898  0.5637977323040151  0.2070555083448009  1.0000
  O   O11       1.0  0.93171219898075  0.34786248220604143  0.4238173347500225  1.0000
