data_image0
_chemical_formula_structural       NC8ONC5NC3OH9C7ClCClC6H10C14H10Zn2C4O8
_chemical_formula_sum              "N3 C48 O10 H29 Cl2 Zn2"
_cell_length_a       21.006696871193384
_cell_length_b       17.25489619101054
_cell_length_c       14.390576945434871
_cell_angle_alpha    83.28663980223112
_cell_angle_beta     91.87383102147531
_cell_angle_gamma    91.02453107224584

_space_group_name_H-M_alt    "P 1"
_space_group_IT_number       1

loop_
  _space_group_symop_operation_xyz
  'x, y, z'

loop_
  _atom_site_type_symbol
  _atom_site_label
  _atom_site_symmetry_multiplicity
  _atom_site_fract_x
  _atom_site_fract_y
  _atom_site_fract_z
  _atom_site_occupancy
  N   N1        1.0  0.5781053662166954  0.8803499312803044  0.9529783813044996  1.0000
  C   C1        1.0  0.5245025514386371  0.8710545871963  0.9358183164987977  1.0000
  C   C2        1.0  0.4578271579988106  0.8594929863648514  0.9144729983447735  1.0000
  C   C3        1.0  0.4361816282989551  0.7892525067648423  0.8840162909065772  1.0000
  C   C4        1.0  0.37141186760471745  0.7779539352495761  0.8633459578844473  1.0000
  C   C5        1.0  0.32758852852559084  0.8370892676918698  0.8721712972224533  1.0000
  C   C6        1.0  0.3496313675190439  0.9071148825722315  0.9038871898753624  1.0000
  C   C7        1.0  0.41440698564222295  0.9183083655615678  0.9245584297615261  1.0000
  C   C8        1.0  0.2588885431998539  0.8243385477976293  0.8513284824899429  1.0000
  O   O1        1.0  0.2359457702121928  0.7560569825510608  0.8652813227949913  1.0000
  N   N2        1.0  0.2177618059095306  0.8881297118053222  0.8173136612943026  1.0000
  C   C9        1.0  0.15271771144147162  0.886954053524396  0.8454275049616087  1.0000
  C   C10       1.0  0.13226633129938656  0.9419283213125367  0.9020786187089067  1.0000
  C   C11       1.0  0.06896076910388121  0.9413940287338424  0.9293317833865913  1.0000
  C   C12       1.0  0.025576753359218416  0.8860000153240649  0.8998697581004194  1.0000
  C   C13       1.0  0.9603978140260934  0.885465648916824  0.9278786132932368  1.0000
  N   N3        1.0  0.907996708371757  0.8850359560102214  0.9503966376819859  1.0000
  C   C14       1.0  0.0457441655500545  0.8312347153225343  0.8429142183737733  1.0000
  C   C15       1.0  0.10905845119645123  0.8317619957619414  0.8156782495547175  1.0000
  C   C16       1.0  0.24031161826039074  0.9507208813893839  0.7511528065256445  1.0000
  O   O2        1.0  0.20484067869684391  0.006994147450038568  0.7215431558703  1.0000
  H   H1        1.0  0.46933833667041774  0.7432197533167895  0.8762846896377254  1.0000
  H   H2        1.0  0.35561282911907915  0.7232570193437681  0.8397069605555576  1.0000
  H   H3        1.0  0.31672112681174225  0.9528227929297775  0.9137741833521118  1.0000
  H   H4        1.0  0.4305641963772147  0.9726681715082541  0.9487879171066811  1.0000
  H   H5        1.0  0.1655363982270252  0.9848724627337049  0.925233484064824  1.0000
  H   H6        1.0  0.05386936556796619  0.9840938370902491  0.9732829259900493  1.0000
  H   H7        1.0  0.0125404843659331  0.7883119882539498  0.8194348828972127  1.0000
  H   H8        1.0  0.1240157029693364  0.7896511577516482  0.7709389319409429  1.0000
  H   H9        1.0  0.28804133052289677  0.9498397692526652  0.7251869930180836  1.0000
  C   C17       1.0  0.7418607076030573  0.6546876906866737  0.955390502626345  1.0000
  C   C18       1.0  0.7727252533127542  0.6105069440809047  0.0315338599633519  1.0000
  C   C19       1.0  0.769819743203765  0.5289824424694406  0.040472953398695624  1.0000
  C   C20       1.0  0.7366039248791175  0.49021542150517317  0.9731119309544265  1.0000
  C   C21       1.0  0.704992891216114  0.5341016938916129  0.8977305413225966  1.0000
  C   C22       1.0  0.7078441920020303  0.6156240884562048  0.8886939244987846  1.0000
  C   C23       1.0  0.7327313804473753  0.404068323164151  0.9845270531296799  1.0000
  Cl  Cl1       1.0  0.6976711252382616  0.3594837832264021  0.08753119977529605  1.0000
  C   C24       1.0  0.7534122275390444  0.36130871283273636  0.9189357508616209  1.0000
  Cl  Cl2       1.0  0.788472528298019  0.40589320257247  0.8159315335243236  1.0000
  C   C25       1.0  0.7495388535984064  0.27516174562550627  0.9303500396114297  1.0000
  C   C26       1.0  0.7811499138540767  0.2312751634303333  0.005728765241554306  1.0000
  C   C27       1.0  0.7782925630662738  0.1497562881002863  0.014749266595384228  1.0000
  C   C28       1.0  0.7442476374446146  0.1106921236997863  0.9479925909621167  1.0000
  C   C29       1.0  0.7134091557607404  0.15486803997251405  0.8719119112929798  1.0000
  C   C30       1.0  0.7163213416803463  0.23639511064794821  0.8629878416588653  1.0000
  H   H10       1.0  0.7157208694186274  0.8433303307422185  0.8626405472089614  1.0000
  H   H11       1.0  0.7990701329300829  0.6388949753097918  0.08429963626040726  1.0000
  H   H12       1.0  0.793876965545262  0.49604957378218556  0.09969545590080642  1.0000
  H   H13       1.0  0.6777921389200315  0.5051870348652442  0.8462289972943375  1.0000
  H   H14       1.0  0.6831946128964952  0.647979047141852  0.8296551714841712  1.0000
  H   H15       1.0  0.8083520523802831  0.2601841661786358  0.05723369940292869  1.0000
  H   H16       1.0  0.8029367747589381  0.11736808307999666  0.0737807999543292  1.0000
  H   H17       1.0  0.6870603152485404  0.1265140885201268  0.8191324160533785  1.0000
  H   H18       1.0  0.692264944115717  0.26933346478257614  0.8037685158599981  1.0000
  H   H19       1.0  0.7048447498414793  0.9272140202359691  0.8962907125986613  1.0000
  C   C31       1.0  0.7362030044193142  0.8885750172906238  0.6778647517244907  1.0000
  C   C32       1.0  0.7487772107231817  0.8781922291668212  0.5845240497051398  1.0000
  C   C33       1.0  0.7095320885600257  0.9109045031373902  0.509648900525973  1.0000
  C   C34       1.0  0.6569514608901654  0.9547606078009206  0.5286961037624494  1.0000
  C   C35       1.0  0.6439750255739732  0.9660539862903511  0.6204937025256265  1.0000
  C   C36       1.0  0.6829862526838265  0.9336415046193584  0.6953243034453249  1.0000
  C   C37       1.0  0.6677086547550278  0.9497244750182431  0.7882099057181028  1.0000
  C   C38       1.0  0.6546021882186919  0.9635668493295119  0.8655014061927613  1.0000
  C   C39       1.0  0.7234527604723519  0.899145140265066  0.41175990120738715  1.0000
  C   C40       1.0  0.7863920000880443  0.9034344920315492  0.3810528616107578  1.0000
  C   C41       1.0  0.7994833214245919  0.8924100481041505  0.28893733364407526  1.0000
  C   C42       1.0  0.749905307626729  0.8768048061150366  0.2255183994756793  1.0000
  C   C43       1.0  0.6870013682055621  0.8725041544037352  0.2561435565320656  1.0000
  C   C44       1.0  0.6739069083258935  0.883591183119234  0.3482432770168078  1.0000
  H   H20       1.0  0.7902294338012238  0.8169244774012405  0.8985069095965625  1.0000
  H   H21       1.0  0.788634775080819  0.8429739628681989  0.5699708585348917  1.0000
  H   H22       1.0  0.6263498785442474  0.9814883650289933  0.47234392455091406  1.0000
  H   H23       1.0  0.6033885910213682  0.0008699468531298722  0.633140246497227  1.0000
  H   H24       1.0  0.6431237792247328  0.9756896750311971  0.9333375337546002  1.0000
  H   H25       1.0  0.8254932252658388  0.9163535032913304  0.4279703531527721  1.0000
  H   H26       1.0  0.8484541767320721  0.8963162486782688  0.2673666538588302  1.0000
  H   H27       1.0  0.6477865078151761  0.860371445385053  0.20904017956436205  1.0000
  H   H28       1.0  0.6250197038451057  0.8789738406798802  0.3701312188269054  1.0000
  H   H29       1.0  0.7228975761752269  0.8415557422212266  0.9986745500987451  1.0000
  Zn  Zn1       1.0  0.6733050069860356  0.8817000233026838  0.9522387602114306  1.0000
  Zn  Zn2       1.0  0.8127972191501878  0.8836793494073393  0.9511439854293975  1.0000
  C   C45       1.0  0.7472976846584649  0.8759364726233169  0.12205030025201552  1.0000
  C   C46       1.0  0.7388060721462468  0.8894438993989264  0.7813325090627565  1.0000
  C   C47       1.0  0.7437002009906886  0.02457740080163417  0.9456751747018152  1.0000
  C   C48       1.0  0.7424035045760409  0.7408020366343036  0.9577076998343345  1.0000
  O   O3        1.0  0.792616235270592  0.8904832607932283  0.8156418272442163  1.0000
  O   O4        1.0  0.7993588731546213  0.8763987939761173  0.08690981441962248  1.0000
  O   O5        1.0  0.7964531702453793  0.9964281923369929  0.9444856451578281  1.0000
  O   O6        1.0  0.7955218888603616  0.7704538688138346  0.9580659268734611  1.0000
  O   O7        1.0  0.6905802896738977  0.994925503221692  0.945316819136041  1.0000
  O   O8        1.0  0.6934859962191577  0.874897038772626  0.08774092354513258  1.0000
  O   O9        1.0  0.6867433301858077  0.8889815026284086  0.8164718157065695  1.0000
  O   O10       1.0  0.6896489854930854  0.7689521035930367  0.9588959853370393  1.0000
