data_image0
_chemical_formula_structural       NC9NC3OH6C7OC3OC4H11C7OC4NC3H9Zn2C4O8
_chemical_formula_sum              "N3 C44 O12 H26 Zn2"
_cell_length_a       15.78231758774541
_cell_length_b       10.299371110280154
_cell_length_c       10.299375074045738
_cell_angle_alpha    85.55741756906849
_cell_angle_beta     90.07708282106614
_cell_angle_gamma    89.64456115777638

_space_group_name_H-M_alt    "P 1"
_space_group_IT_number       1

loop_
  _space_group_symop_operation_xyz
  'x, y, z'

loop_
  _atom_site_type_symbol
  _atom_site_label
  _atom_site_symmetry_multiplicity
  _atom_site_fract_x
  _atom_site_fract_y
  _atom_site_fract_z
  _atom_site_occupancy
  N   N1        1.0  0.7981780251261317  0.41381108173472114  0.5702990013053841  1.0000
  C   C1        1.0  0.7496328439863446  0.3317381943973592  0.5943537599553477  1.0000
  C   C2        1.0  0.6893622020309712  0.22986579146273467  0.6242119128574553  1.0000
  C   C3        1.0  0.7090043028699102  0.10189766648483164  0.6616391512105608  1.0000
  C   C4        1.0  0.6322637888850001  0.039879275919231016  0.6798524105142836  1.0000
  C   C5        1.0  0.5704982954659511  0.1345903188471076  0.6521932527258196  1.0000
  C   C6        1.0  0.477404504656085  0.11707966035290185  0.6573987786088549  1.0000
  C   C7        1.0  0.42367660001148366  0.22444656021679757  0.6258786171752715  1.0000
  C   C8        1.0  0.3354678101069051  0.2100882373920565  0.6301541846194565  1.0000
  C   C9        1.0  0.2810439090374844  0.3205790359756885  0.5977086809391452  1.0000
  N   N2        1.0  0.23729998515397913  0.40939938326493347  0.5716253944203997  1.0000
  C   C10       1.0  0.30030561187834043  0.08820321337828997  0.6659988588176953  1.0000
  C   C11       1.0  0.3531026192826949  0.981058289938883  0.6974582104945317  1.0000
  C   C12       1.0  0.441125683732538  0.9950221670778874  0.6932988277944097  1.0000
  O   O1        1.0  0.606974690953881  0.24683525221557015  0.6193160919999887  1.0000
  H   H1        1.0  0.7714578045239187  0.05874224289130182  0.6742101067040638  1.0000
  H   H2        1.0  0.6235153169158699  0.9379048136168725  0.709692420149423  1.0000
  H   H3        1.0  0.45029726301053125  0.31929472264749004  0.5979803830607884  1.0000
  H   H4        1.0  0.23218736968636952  0.07604246088757116  0.6696179195811944  1.0000
  H   H5        1.0  0.3257517444296876  0.8868585586127306  0.7251661414165433  1.0000
  H   H6        1.0  0.4801985228354472  0.9101558391361069  0.7182251000657269  1.0000
  C   C13       1.0  0.017685931544211053  0.030234418336138706  0.5708472219840997  1.0000
  C   C14       1.0  0.007933660066006255  0.039673267533320455  0.4348282727452255  1.0000
  C   C15       1.0  0.0020577665474241767  0.9272565926697628  0.3663893820678641  1.0000
  C   C16       1.0  0.007975693918976786  0.8044048421383788  0.43513949571815874  1.0000
  C   C17       1.0  0.01780016958515216  0.7929659969340715  0.5710884270665078  1.0000
  C   C18       1.0  0.02237659673557091  0.9064810115126449  0.6381926467582235  1.0000
  C   C19       1.0  0.992643701230646  0.9370865112909261  0.22260928861872634  1.0000
  O   O2        1.0  0.027381856344377044  0.8517239573366037  0.15868920856919622  1.0000
  C   C20       1.0  0.943811521715841  0.04367422171398738  0.151348659734033  1.0000
  C   C21       1.0  0.9675050327054898  0.08864629387117295  0.024273570406154743  1.0000
  C   C22       1.0  0.9216798081708076  0.18814728967222583  0.9547521186376926  1.0000
  O   O3        1.0  0.948741617925363  0.22973246750394757  0.8287319475627797  1.0000
  C   C23       1.0  0.9083588831478319  0.32965535550453406  0.7471723567365443  1.0000
  C   C24       1.0  0.8505976279015062  0.2426971841586738  0.013027389302029402  1.0000
  C   C25       1.0  0.8260343281493493  0.19744460979830247  0.13858274354757394  1.0000
  C   C26       1.0  0.87200997550912  0.09822369979995349  0.20735244781001486  1.0000
  H   H7        1.0  0.03738250862551129  0.2197488724799177  0.8273079471215732  1.0000
  H   H8        1.0  0.005839671303613289  0.1346496449556691  0.38179052112550127  1.0000
  H   H9        1.0  0.00408398251930908  0.7176043764007362  0.38240359226521003  1.0000
  H   H10       1.0  0.029895428833782916  0.898400543681064  0.7430532918489663  1.0000
  H   H11       1.0  0.0222927334483216  0.04721771884150017  0.9790647522264004  1.0000
  H   H12       1.0  0.9429304705794029  0.34243620451924905  0.6534028681395028  1.0000
  H   H13       1.0  0.9096036030065626  0.42308100796170184  0.7941966920444203  1.0000
  H   H14       1.0  0.8419577336580523  0.3020969247282759  0.7272069346632892  1.0000
  H   H15       1.0  0.8137972274872997  0.3195861979881114  0.9620261234732563  1.0000
  H   H16       1.0  0.7709264853622938  0.23903828756786386  0.18256882314760725  1.0000
  H   H17       1.0  0.850865584909545  0.06324987514328084  0.3036703656574373  1.0000
  C   C27       1.0  0.017771870018627126  0.41174226853907436  0.1895811865981205  1.0000
  C   C28       1.0  0.0830068679093432  0.504198196978807  0.18136412717185157  1.0000
  C   C29       1.0  0.11525149312313854  0.5519172510131145  0.05996059187839298  1.0000
  C   C30       1.0  0.08286964543401004  0.5039618389533227  0.9461383214120437  1.0000
  C   C31       1.0  0.017714194762131527  0.4114581624517588  0.9523544785640286  1.0000
  C   C32       1.0  0.9853904356150469  0.3661364714512394  0.07455480562740213  1.0000
  C   C33       1.0  0.18474340817005352  0.6485383574012049  0.051223674488700244  1.0000
  O   O4        1.0  0.2388898159025733  0.6433093320177894  0.9617508093060243  1.0000
  C   C34       1.0  0.19279702129389675  0.7511033696462188  0.14390691151104185  1.0000
  C   C35       1.0  0.2733788965725199  0.7968550083918154  0.17592157011366893  1.0000
  C   C36       1.0  0.28160426401162675  0.894784591715982  0.2621940967973111  1.0000
  C   C37       1.0  0.36435568248388983  0.9403051048141584  0.29524635142440325  1.0000
  N   N3        1.0  0.4308784994077157  0.9768928519332929  0.32181287736131226  1.0000
  C   C38       1.0  0.2092557836144754  0.9483627414247402  0.31618568581595485  1.0000
  C   C39       1.0  0.12895647773450847  0.904619922419293  0.28367156266344273  1.0000
  C   C40       1.0  0.1205626356946376  0.8069620173530978  0.19767417113081254  1.0000
  H   H18       1.0  0.8955566312883818  0.23579450767212395  0.41252485655212845  1.0000
  H   H19       1.0  0.10946503492629889  0.538133835575749  0.2696380940773788  1.0000
  H   H20       1.0  0.10809588904594886  0.5399444101298829  0.8524807990325156  1.0000
  H   H21       1.0  0.9350993003120791  0.29485903407577374  0.08008573987106882  1.0000
  H   H22       1.0  0.9931729014864048  0.37511781895894264  0.62734868484868  1.0000
  H   H23       1.0  0.3297023581235934  0.7555688594042651  0.13469817520492033  1.0000
  H   H24       1.0  0.21491946403316342  0.02418415078592284  0.38290594541086964  1.0000
  H   H25       1.0  0.07305530216013406  0.9468805308649983  0.3247477234555918  1.0000
  H   H26       1.0  0.05762236054137257  0.776200680976899  0.17217083081428286  1.0000
  Zn  Zn1       1.0  0.9248991325027626  0.4125344890691096  0.5706892624243427  1.0000
  Zn  Zn2       1.0  0.11057884689491221  0.41066537245365325  0.5712457467619507  1.0000
  C   C41       1.0  0.01772245262260584  0.40633815813054186  0.8081723237365813  1.0000
  C   C42       1.0  0.01775755462754991  0.4168633215616191  0.3337628195170337  1.0000
  C   C43       1.0  0.017774598836470368  0.6487954555651738  0.5658673942729344  1.0000
  C   C44       1.0  0.01770534481526596  0.17440446442880256  0.5760678175392446  1.0000
  O   O5        1.0  0.08821723333686288  0.41786700795374276  0.38236267375448296  1.0000
  O   O6        1.0  0.08818938068232662  0.40391487588768377  0.7599944540620023  1.0000
  O   O7        1.0  0.08823053941249132  0.5997022189161103  0.5643315067526478  1.0000
  O   O8        1.0  0.08817601125554003  0.22207967488966054  0.5780255234976939  1.0000
  O   O9        1.0  0.9473019047787616  0.6011201872723566  0.5639094854918683  1.0000
  O   O10       1.0  0.9472607462836427  0.4053344045813692  0.7595723640459278  1.0000
  O   O11       1.0  0.947288599105766  0.41928649197232276  0.3819390222510548  1.0000
  O   O12       1.0  0.9472473770122285  0.2234991495831504  0.577601969363678  1.0000
