data_image0
_chemical_formula_structural       NC5NC3BrH3C7NH5C6SCH8Zn2C4O8
_chemical_formula_sum              "N3 C26 Br1 H16 S1 Zn2 O8"
_cell_length_a       13.839083392302014
_cell_length_b       9.275154477615127
_cell_length_c       10.302812801239593
_cell_angle_alpha    85.78691219350036
_cell_angle_beta     90.00087154347639
_cell_angle_gamma    89.45968127068964

_space_group_name_H-M_alt    "P 1"
_space_group_IT_number       1

loop_
  _space_group_symop_operation_xyz
  'x, y, z'

loop_
  _atom_site_type_symbol
  _atom_site_label
  _atom_site_symmetry_multiplicity
  _atom_site_fract_x
  _atom_site_fract_y
  _atom_site_fract_z
  _atom_site_occupancy
  N   N1        1.0  0.8994454241955859  0.5784977495546926  0.573559301996285  1.0000
  C   C1        1.0  0.8278642528359835  0.5148648568725371  0.5755516336702289  1.0000
  C   C2        1.0  0.7386792893274717  0.43568353735402543  0.5780306410763038  1.0000
  C   C3        1.0  0.6506182162155225  0.5118731587977756  0.5756454726163434  1.0000
  C   C4        1.0  0.5630663677244564  0.4371560595807484  0.577984488728402  1.0000
  C   C5        1.0  0.47278730276825925  0.5156967568032773  0.5755255733514981  1.0000
  N   N2        1.0  0.40021462282561193  0.5788373200639716  0.5735486206785931  1.0000
  C   C6        1.0  0.5635118221083504  0.28593787847646324  0.582718467011253  1.0000
  C   C7        1.0  0.6511286523673214  0.20962700586422026  0.5851073490632652  1.0000
  C   C8        1.0  0.7388812574734804  0.2836300779032219  0.5827907041821285  1.0000
  Br  Br1       1.0  0.857013136703345  0.17355469444930718  0.5862367617979056  1.0000
  H   H1        1.0  0.6502179363058329  0.6290544510101257  0.5719768604897797  1.0000
  H   H2        1.0  0.49620703125528726  0.227093282560372  0.584560392227133  1.0000
  H   H3        1.0  0.6507640850934499  0.09269488616155153  0.5887678208117888  1.0000
  C   C9        1.0  0.15263081616272745  0.1552801246859612  0.5720515775214796  1.0000
  C   C10       1.0  0.12610779896858637  0.23844122543017998  0.4575839077336888  1.0000
  C   C11       1.0  0.09172518846931708  0.17237948727846653  0.3491799581903654  1.0000
  C   C12       1.0  0.08329946983202996  0.022253249410731476  0.353966990300711  1.0000
  C   C13       1.0  0.11071805759893796  0.9378850808748685  0.46582542879503586  1.0000
  C   C14       1.0  0.14703855351805628  0.002043850931624067  0.5750675962740306  1.0000
  C   C15       1.0  0.06391663058157748  0.25912152867386307  0.23333267503711477  1.0000
  N   N3        1.0  0.04156626365075855  0.3288462291457406  0.14022113338406308  1.0000
  H   H4        1.0  0.17136650331784709  0.23196388633617634  0.8907289854431188  1.0000
  H   H5        1.0  0.130053988861911  0.3554033014586404  0.4537316985982669  1.0000
  H   H6        1.0  0.05635940364537117  0.9701084069198249  0.27065175772247785  1.0000
  H   H7        1.0  0.1056440725069534  0.8214140444025667  0.4657112820341121  1.0000
  H   H8        1.0  0.16375425344519012  0.7032849398920552  0.7885904356971678  1.0000
  C   C16       1.0  0.14983471113547628  0.5786619844261129  0.19231110693343156  1.0000
  C   C17       1.0  0.11629809486828725  0.7224194229026193  0.18162663018261244  1.0000
  C   C18       1.0  0.09936362489499294  0.7937357646143237  0.05933403452788055  1.0000
  C   C19       1.0  0.11629800875612029  0.7224192714960791  0.9464754599561553  1.0000
  C   C20       1.0  0.14983464852386308  0.5786619746674102  0.9548080105296974  1.0000
  C   C21       1.0  0.16640938898569702  0.5074731508039803  0.07826822071045325  1.0000
  S   S1        1.0  0.05671338450071173  0.9775140354868923  0.04717826611317212  1.0000
  C   C22       1.0  0.9299442685013739  0.9270543719663984  0.050513689200883734  1.0000
  H   H9        1.0  0.16243725653801988  0.5244682665470146  0.5236518687252023  1.0000
  H   H10       1.0  0.10297602873956735  0.7795202868183488  0.26794936822633764  1.0000
  H   H11       1.0  0.1029758366545257  0.7795200789986259  0.852599054508621  1.0000
  H   H12       1.0  0.19226020865928573  0.3965770966684239  0.08560317863573896  1.0000
  H   H13       1.0  0.1624354623051365  0.5244675168009929  0.6306362805833716  1.0000
  H   H14       1.0  0.9132335157039481  0.8629034897325929  0.9666392824495635  1.0000
  H   H15       1.0  0.9132339199290874  0.8629049470985188  0.14287397966404858  1.0000
  H   H16       1.0  0.8845658635516327  0.02653940924933272  0.04393258732265105  1.0000
  Zn  Zn1       1.0  0.043956626190861714  0.5785918766927989  0.5735637089129768  1.0000
  Zn  Zn2       1.0  0.2557034910157867  0.5787313755591552  0.5735548262091223  1.0000
  C   C23       1.0  0.14987044025273732  0.5729182648482662  0.8106593243688267  1.0000
  C   C24       1.0  0.14979197720883564  0.5844068080864777  0.3364593445618958  1.0000
  C   C25       1.0  0.1480906327478  0.8419874596163194  0.5693239354580294  1.0000
  C   C26       1.0  0.15157172389939322  0.3153358810571698  0.577794796522735  1.0000
  O   O1        1.0  0.23013450852649808  0.5863814724976104  0.38483341657712034  1.0000
  O   O2        1.0  0.23023888703153972  0.5710483891825198  0.7622781329849329  1.0000
  O   O3        1.0  0.2288005867139351  0.788325166088452  0.5673981043365683  1.0000
  O   O4        1.0  0.2315727365211333  0.3691047058578789  0.579713347921339  1.0000
  O   O5        1.0  0.06808730842669178  0.7882185463480402  0.5674051871969681  1.0000
  O   O6        1.0  0.06952559729985278  0.5709435016573285  0.7622851527914982  1.0000
  O   O7        1.0  0.06942121919100841  0.5862765347303167  0.3848388752972114  1.0000
  O   O8        1.0  0.07085944724979007  0.3689997577783499  0.579718903941784  1.0000
