data_image0
_chemical_formula_structural       NC9NC3SH6C7ONH7C8H6Zn2C4O8
_chemical_formula_sum              "N3 C31 S1 H19 O9 Zn2"
_cell_length_a       16.77567553997237
_cell_length_b       10.297852080636378
_cell_length_c       9.275144076552241
_cell_angle_alpha    85.95896827245511
_cell_angle_beta     90.85075607413872
_cell_angle_gamma    90.87229915396684

_space_group_name_H-M_alt    "P 1"
_space_group_IT_number       1

loop_
  _space_group_symop_operation_xyz
  'x, y, z'

loop_
  _atom_site_type_symbol
  _atom_site_label
  _atom_site_symmetry_multiplicity
  _atom_site_fract_x
  _atom_site_fract_y
  _atom_site_fract_z
  _atom_site_occupancy
  N   N1        1.0  0.74336235136752  0.42997601309929856  0.41779042893666785  1.0000
  C   C1        1.0  0.6888089393146225  0.47961093939495325  0.46397251640238335  1.0000
  C   C2        1.0  0.6211073405321045  0.5412045981734857  0.5212809536125544  1.0000
  C   C3        1.0  0.6236939913667459  0.629991451935399  0.6268022728154536  1.0000
  C   C4        1.0  0.5482036788869098  0.6736984773498101  0.6617861703476153  1.0000
  C   C5        1.0  0.4858620788571414  0.6191367574525686  0.5833975621054122  1.0000
  C   C6        1.0  0.3994197378881984  0.6452841099862425  0.5954459009566724  1.0000
  C   C7        1.0  0.3423310974818861  0.5652635359697935  0.5307369740398533  1.0000
  C   C8        1.0  0.2607336417922848  0.5893924839973304  0.5416121961856344  1.0000
  C   C9        1.0  0.2029711764232747  0.506692823747457  0.47535408435276927  1.0000
  N   N2        1.0  0.1565472188571719  0.44021414993634655  0.4220923520314923  1.0000
  C   C10       1.0  0.23539413986318813  0.6938544503762842  0.6170175503901162  1.0000
  C   C11       1.0  0.29138881569486014  0.7740305514608419  0.6812141308466508  1.0000
  C   C12       1.0  0.3728299985684285  0.7502670320323289  0.6706659580867553  1.0000
  S   S1        1.0  0.5259678701093827  0.5163055463263859  0.4711519836307431  1.0000
  H   H1        1.0  0.6783166622743383  0.6621864917411312  0.6776093161504257  1.0000
  H   H2        1.0  0.5402879996350584  0.7421384216153799  0.743361886558777  1.0000
  H   H3        1.0  0.3608856001359906  0.4835741798323754  0.4725078717043021  1.0000
  H   H4        1.0  0.172445994683065  0.7133749796191321  0.6259979821385955  1.0000
  H   H5        1.0  0.2716522169771328  0.8551059870059363  0.7390907483079523  1.0000
  H   H6        1.0  0.414478456612112  0.8152406908500721  0.720357254434216  1.0000
  C   C13       1.0  0.9500436288018652  0.05366020342503087  0.419950936026594  1.0000
  C   C14       1.0  0.9384644441501018  0.06196558645863704  0.26925072299578545  1.0000
  C   C15       1.0  0.9318894482468353  0.9490673319057166  0.19294901418638472  1.0000
  C   C16       1.0  0.9382626664294951  0.8267080653506097  0.26919889599490476  1.0000
  C   C17       1.0  0.9498735979379543  0.8165202570954104  0.4199443731480074  1.0000
  C   C18       1.0  0.9554995917530851  0.9305031262830354  0.49436760712382877  1.0000
  C   C19       1.0  0.9198571717597555  0.9604449091521807  0.03376212122925892  1.0000
  O   O1        1.0  0.940839099077434  0.06361912816523296  0.9622022900362132  1.0000
  N   N3        1.0  0.8839076356713392  0.8572776195979994  0.9589681905507143  1.0000
  H   H7        1.0  0.9722166870350014  0.24524314960558624  0.7047009502531794  1.0000
  H   H8        1.0  0.933839052847186  0.15661323265594465  0.21109987791829843  1.0000
  H   H9        1.0  0.9357510499515201  0.7390830940703212  0.21136166254911473  1.0000
  H   H10       1.0  0.9644218244725578  0.9233484659463318  0.6105141130853347  1.0000
  H   H11       1.0  0.9730942931867377  0.590039179440502  0.7045739490571683  1.0000
  H   H12       1.0  0.8793913142156905  0.8655302491157025  0.8463003498649857  1.0000
  H   H13       1.0  0.8569259876642817  0.7768206093529408  0.014072940566294486  1.0000
  C   C20       1.0  0.9480812620134006  0.43238570668341186  0.9966426501092429  1.0000
  C   C21       1.0  0.8960795855039819  0.5158082181160926  0.06207442370462113  1.0000
  C   C22       1.0  0.850473889369375  0.6058249362641694  0.9786638598572579  1.0000
  C   C23       1.0  0.8560449246171726  0.6142634477463956  0.8282913330870567  1.0000
  C   C24       1.0  0.9063914451813093  0.5307046690619744  0.7610864943633726  1.0000
  C   C25       1.0  0.9518359953014863  0.4377947887027152  0.843252755684071  1.0000
  C   C26       1.0  0.8092804559660065  0.7078220912952345  0.7424987677863459  1.0000
  C   C27       1.0  0.7701293533334517  0.7861527075315213  0.6706541428739401  1.0000
  H   H14       1.0  0.11386303746458304  0.26598190420016143  0.11697381506978122  1.0000
  H   H15       1.0  0.8920920631631367  0.5135258871977681  0.17870304398728232  1.0000
  H   H16       1.0  0.8113977418943623  0.6698030131225212  0.03169499687930943  1.0000
  H   H17       1.0  0.9086759687738626  0.5361586876328728  0.6440256356053289  1.0000
  H   H18       1.0  0.06172947900747828  0.32158833604925796  0.5745835140386322  1.0000
  H   H19       1.0  0.7357628124385571  0.8549102724743256  0.6075880005386125  1.0000
  Zn  Zn1       1.0  0.8625986194449411  0.4329271035271474  0.4190402041676804  1.0000
  Zn  Zn2       1.0  0.03731100067720905  0.43725253895336486  0.4208544147638536  1.0000
  C   C28       1.0  0.9511256430933518  0.43159770861763824  0.6832253067366075  1.0000
  C   C29       1.0  0.9487858851448241  0.4385836209040501  0.1566694734749876  1.0000
  C   C30       1.0  0.9498761820528856  0.6722866663725892  0.4142013687879179  1.0000
  C   C31       1.0  0.9500352872567758  0.19789310159111143  0.4256934876701868  1.0000
  O   O2        1.0  0.015324802523771549  0.4422995110137111  0.21106442077439014  1.0000
  O   O3        1.0  0.017189378878408094  0.43116374136921753  0.6302068883551692  1.0000
  O   O4        1.0  0.016179536145584983  0.6255231061321098  0.4129681457798592  1.0000
  O   O5        1.0  0.016334585157676388  0.24794015337612874  0.42830305464836543  1.0000
  O   O6        1.0  0.8835749753436786  0.6222394876296907  0.4115915636564851  1.0000
  O   O7        1.0  0.8845848173842207  0.42788168295009277  0.6288302293586023  1.0000
  O   O8        1.0  0.882720233406383  0.4390173962592281  0.20968602868322206  1.0000
  O   O9        1.0  0.883730016518411  0.24465803002164238  0.4269247706318483  1.0000
