data_image0
_chemical_formula_structural       NC5NC3F3CH3C9H10C9H8Zn2C4O8
_chemical_formula_sum              "N2 C31 F3 H21 Zn2 O8"
_cell_length_a       13.85151926108384
_cell_length_b       10.297183801781406
_cell_length_c       9.275155815604963
_cell_angle_alpha    86.02609203372302
_cell_angle_beta     90.35750761735815
_cell_angle_gamma    89.99762972311773

_space_group_name_H-M_alt    "P 1"
_space_group_IT_number       1

loop_
  _space_group_symop_operation_xyz
  'x, y, z'

loop_
  _atom_site_type_symbol
  _atom_site_label
  _atom_site_symmetry_multiplicity
  _atom_site_fract_x
  _atom_site_fract_y
  _atom_site_fract_z
  _atom_site_occupancy
  N   N1        1.0  0.9023934799308259  0.40934428733689704  0.40953202987625925  1.0000
  C   C1        1.0  0.8303251544632066  0.4016498664604384  0.4719884244152748  1.0000
  C   C2        1.0  0.740666505990485  0.39207695458258907  0.5496931140307282  1.0000
  C   C3        1.0  0.6528247108131416  0.3997975501598774  0.4741815736460105  1.0000
  C   C4        1.0  0.5656145164032164  0.3920769425857804  0.5496930939828444  1.0000
  C   C5        1.0  0.47530590273636336  0.40164988173726  0.47198851845372564  1.0000
  N   N2        1.0  0.4027152947591572  0.409344254025668  0.4095321353221766  1.0000
  C   C6        1.0  0.5662376194347513  0.37573815974004593  0.7008926154113171  1.0000
  C   C7        1.0  0.6540938551342551  0.36515406563294195  0.7776674291137251  1.0000
  C   C8        1.0  0.6547752846812224  0.3523870713880268  0.9406581145986438  1.0000
  F   F1        1.0  0.7359274476559639  0.285396297260795  0.9922821820191029  1.0000
  F   F2        1.0  0.5740586334109108  0.2853962704678254  0.9922822813069639  1.0000
  F   F3        1.0  0.6549872797346442  0.47512589416771656  0.9923037582103267  1.0000
  C   C9        1.0  0.741307946360434  0.37573807409056986  0.7008926350671401  1.0000
  H   H1        1.0  0.6523351932669059  0.4125919192976843  0.35711746843082803  1.0000
  H   H2        1.0  0.4983553366911604  0.37152112548860244  0.7585338070416963  1.0000
  H   H3        1.0  0.8096720900413472  0.37152105229867805  0.7585337660470655  1.0000
  C   C10       1.0  0.15256323384560527  0.027870308038253855  0.4097362708627199  1.0000
  C   C11       1.0  0.1491150212557722  0.0365536514671534  0.25807503921586483  1.0000
  C   C12       1.0  0.14734817780487827  0.9243858948412745  0.180374555199446  1.0000
  C   C13       1.0  0.14910125473199898  0.8013779981541564  0.2574872227390568  1.0000
  C   C14       1.0  0.15255483571918593  0.7908083624147154  0.40934028368176745  1.0000
  C   C15       1.0  0.1542623645588661  0.9045229551579291  0.48447354566753087  1.0000
  C   C16       1.0  0.14361842529618052  0.943209738712464  0.016342224144649146  1.0000
  C   C17       1.0  0.08675376077536834  0.8438703755267821  0.9361125409371969  1.0000
  C   C18       1.0  0.1967204158560188  0.8441430657219882  0.9315341225749507  1.0000
  H   H4        1.0  0.1539011076768593  0.35206279128392004  0.468176207976766  1.0000
  H   H5        1.0  0.14778402368229338  0.13132826644651496  0.19952543641129905  1.0000
  H   H6        1.0  0.14780487656979568  0.7133366593190092  0.2005635310756364  1.0000
  H   H7        1.0  0.15692224910131583  0.897096130493054  0.6014833706602031  1.0000
  H   H8        1.0  0.15906485343320198  0.5636288467374461  0.696147957440928  1.0000
  H   H9        1.0  0.14242050359771732  0.04351626096278239  0.9636193493469016  1.0000
  H   H10       1.0  0.05481279248411641  0.7607417267865865  0.0017012533335742884  1.0000
  H   H11       1.0  0.05226840619111406  0.8839522306917164  0.834142823361634  1.0000
  H   H12       1.0  0.23157828843945372  0.7611808671827954  0.9943424440547255  1.0000
  H   H13       1.0  0.22650572618925785  0.884381918660874  0.8268871911745852  1.0000
  C   C19       1.0  0.15079020141451774  0.40605577652699676  0.9863087613249899  1.0000
  C   C20       1.0  0.07526603049941086  0.46935338259384674  0.05409077228795711  1.0000
  C   C21       1.0  0.00620813613057059  0.5412844580256773  0.9727686629917489  1.0000
  C   C22       1.0  0.011393731968358137  0.5514241754467473  0.8221816036378811  1.0000
  C   C23       1.0  0.08497516473092603  0.4874286182358571  0.7526915899004707  1.0000
  C   C24       1.0  0.1543278316143586  0.41262285059338133  0.8327677789837473  1.0000
  C   C25       1.0  0.9403843291135789  0.6263901801116549  0.7385453006137337  1.0000
  C   C26       1.0  0.8809267463667289  0.689163971417396  0.6684846687971278  1.0000
  C   C27       1.0  0.8087856612512093  0.7653293533298109  0.5834664614153819  1.0000
  H   H14       1.0  0.3748731518201979  0.3012470242913019  0.0993210303747516  1.0000
  H   H15       1.0  0.07092876671724135  0.46575241376243426  0.17088417878626583  1.0000
  H   H16       1.0  0.9492368826397689  0.5901102972774863  0.027556346209228758  1.0000
  H   H17       1.0  0.0867588529981982  0.4935371210535613  0.6355421239263754  1.0000
  H   H18       1.0  0.30384479599071934  0.3373943295514998  0.5592244521197137  1.0000
  H   H19       1.0  0.8284035917009025  0.7690617426900505  0.46746553866517987  1.0000
  H   H20       1.0  0.7368840357749198  0.7190706254145385  0.5985167422155828  1.0000
  H   H21       1.0  0.806341299622188  0.86563652328847  0.6199191291426613  1.0000
  Zn  Zn1       1.0  0.04677558307894137  0.4093408742146439  0.40954036928206894  1.0000
  Zn  Zn2       1.0  0.2583332233844456  0.4093371626054598  0.40953555257180385  1.0000
  C   C28       1.0  0.15365706173660512  0.406206460608667  0.6727716208479873  1.0000
  C   C29       1.0  0.15145405550275867  0.4124732163395608  0.14630444156031608  1.0000
  C   C30       1.0  0.1525274374436678  0.6465522690471222  0.4036719379245095  1.0000
  C   C31       1.0  0.15258360794420983  0.1721258477659211  0.41540420213398904  1.0000
  O   O1        1.0  0.23196187301569215  0.41461989192548554  0.19999862845071315  1.0000
  O   O2        1.0  0.2337165963818435  0.4040559847859581  0.6190733638136479  1.0000
  O   O3        1.0  0.2328033344619429  0.5981382763332765  0.401773465251664  1.0000
  O   O4        1.0  0.23287506229356542  0.22053760883382778  0.41729841894660735  1.0000
  O   O5        1.0  0.07223367197554964  0.598140427988898  0.4017775029013273  1.0000
  O   O6        1.0  0.07314693355266512  0.40405969657938634  0.6190773238071785  1.0000
  O   O7        1.0  0.07139220300929817  0.4146235450069362  0.200000855681308  1.0000
  O   O8        1.0  0.0723053927349271  0.2205412534622393  0.4173007542373544  1.0000
