data_image0
_chemical_formula_structural       NC9NC3SH6C7F3H5C8NH7Zn2C4O8
_chemical_formula_sum              "N3 C31 S1 H18 F3 Zn2 O8"
_cell_length_a       16.77567553997237
_cell_length_b       9.272718291674593
_cell_length_c       9.274266800404106
_cell_angle_alpha    86.41389872873008
_cell_angle_beta     89.94189520236782
_cell_angle_gamma    90.46558260785916

_space_group_name_H-M_alt    "P 1"
_space_group_IT_number       1

loop_
  _space_group_symop_operation_xyz
  'x, y, z'

loop_
  _atom_site_type_symbol
  _atom_site_label
  _atom_site_symmetry_multiplicity
  _atom_site_fract_x
  _atom_site_fract_y
  _atom_site_fract_z
  _atom_site_occupancy
  N   N1        1.0  0.7509950988078237  0.5867708104582474  0.429741846203745  1.0000
  C   C1        1.0  0.6958200777584446  0.6418719996363103  0.4763357449880039  1.0000
  C   C2        1.0  0.6273471075318025  0.7102489287913811  0.5341552128058003  1.0000
  C   C3        1.0  0.6286209223958273  0.8088192304916642  0.6404124934649682  1.0000
  C   C4        1.0  0.5526330703253376  0.8573383414268233  0.6757591897727093  1.0000
  C   C5        1.0  0.4912169988228344  0.796761253653219  0.5969187203744792  1.0000
  C   C6        1.0  0.4045548809769149  0.8257852987587703  0.6091843662920124  1.0000
  C   C7        1.0  0.3483829347373492  0.736954410130719  0.5438112325606526  1.0000
  C   C8        1.0  0.266584798906556  0.7637379315130113  0.5548869943647692  1.0000
  C   C9        1.0  0.2097643058427176  0.6719331333104459  0.4879424196182858  1.0000
  N   N2        1.0  0.16409755643076532  0.5981352336595651  0.4341288694938225  1.0000
  C   C10       1.0  0.24012812676388276  0.8796990843267785  0.6311597013853736  1.0000
  C   C11       1.0  0.2952099223025157  0.9687024730208629  0.6960217987015382  1.0000
  C   C12       1.0  0.37684732245778296  0.9423246215980877  0.6852761185611109  1.0000
  S   S1        1.0  0.5327558902622446  0.6826013957447156  0.483820467280071  1.0000
  H   H1        1.0  0.6826575491245942  0.844564811645573  0.6914860286340652  1.0000
  H   H2        1.0  0.5437033403395892  0.9333197578265952  0.7579022031792417  1.0000
  H   H3        1.0  0.367804594500362  0.6462728535623754  0.4849038374167613  1.0000
  H   H4        1.0  0.1770160311879451  0.901367229576912  0.6403023660090221  1.0000
  H   H5        1.0  0.2746119369787839  0.05870254994367262  0.7545716088444734  1.0000
  H   H6        1.0  0.4177764500960264  0.014451247649837299  0.7355068108524747  1.0000
  C   C13       1.0  0.9592999509442105  0.16909474064831564  0.4287695891308929  1.0000
  C   C14       1.0  0.9111457596456041  0.24833636137730022  0.32863491556729674  1.0000
  C   C15       1.0  0.8573018431079704  0.1786623513388777  0.23981415845698084  1.0000
  C   C16       1.0  0.85373749435994  0.027338756572404803  0.24820415421202882  1.0000
  C   C17       1.0  0.9019648771827633  0.9471167164937193  0.34522022875137615  1.0000
  C   C18       1.0  0.9558003087197712  0.01580053066855003  0.4351136717598112  1.0000
  C   C19       1.0  0.8077377680804338  0.2653938145012263  0.13049353265225627  1.0000
  F   F1        1.0  0.7870271478009844  0.3966357596775869  0.18266429239258364  1.0000
  F   F2        1.0  0.7382884908433943  0.19185721912247855  0.09963815447653479  1.0000
  F   F3        1.0  0.8512886226674989  0.2904281278538221  0.0046819511019864386  1.0000
  H   H7        1.0  0.05258837459865662  0.25268477783064625  0.740866491481238  1.0000
  H   H8        1.0  0.9143567400678794  0.36534326495315594  0.3219596051432574  1.0000
  H   H9        1.0  0.8141973287849057  0.9706391108724506  0.17846304258037682  1.0000
  H   H10       1.0  0.8987030924659712  0.8302724244765117  0.34712512237860427  1.0000
  H   H11       1.0  0.12616129244541652  0.9058731588866524  0.6104265841784295  1.0000
  C   C20       1.0  0.9593964893920846  0.5893459398947583  0.008626733258201291  1.0000
  C   C21       1.0  0.9135016863114429  0.4848672592912229  0.08851102178564796  1.0000
  C   C22       1.0  0.8627370845825731  0.3914681180236442  0.019381591690737165  1.0000
  C   C23       1.0  0.8561683680901573  0.40108733252628936  0.868687819416325  1.0000
  C   C24       1.0  0.9031717033149473  0.5021494468874546  0.7874830762775193  1.0000
  C   C25       1.0  0.9557037611527868  0.5955493346014986  0.8552564442789432  1.0000
  C   C26       1.0  0.8022917771399014  0.29890037344954234  0.7942749873700836  1.0000
  C   C27       1.0  0.8460010317016659  0.16828632452405023  0.7625307598457258  1.0000
  N   N3        1.0  0.8805035760401096  0.06520184801238417  0.737474485430833  1.0000
  H   H12       1.0  0.045893844081041024  0.9090548214153948  0.09137188143731301  1.0000
  H   H13       1.0  0.9155676482980603  0.4774567421455012  0.20549071358658755  1.0000
  H   H14       1.0  0.8278830086272315  0.3123437698413153  0.08366639588517777  1.0000
  H   H15       1.0  0.9000538755552542  0.5053534992838127  0.6705837606940901  1.0000
  H   H16       1.0  0.016847488154044132  0.8080787498480657  0.5611546625176236  1.0000
  H   H17       1.0  0.7793372284291125  0.3510630846302578  0.6916600164471376  1.0000
  H   H18       1.0  0.7501350325633608  0.2678406700593519  0.8636594182392372  1.0000
  Zn  Zn1       1.0  0.8702075270096871  0.5900465494591824  0.4310161508371473  1.0000
  Zn  Zn2       1.0  0.044885120240054865  0.5948478205864718  0.4328663148894569  1.0000
  C   C28       1.0  0.9564237435958414  0.5886334026263755  0.6951822789264379  1.0000
  C   C29       1.0  0.9586708029921868  0.5962628399207709  0.16870036211943695  1.0000
  C   C30       1.0  0.956482779022306  0.8557129157062368  0.4281700462090683  1.0000
  C   C31       1.0  0.9586117147844021  0.32918159367049826  0.4357126580816011  1.0000
  O   O1        1.0  0.02471651829430121  0.600399982575397  0.22312461474640813  1.0000
  O   O2        1.0  0.022954286096392496  0.5881392230309723  0.6421618348918163  1.0000
  O   O3        1.0  0.023001057801546262  0.8038092939449387  0.42654756958320816  1.0000
  O   O4        1.0  0.024669687412318675  0.38472991954422264  0.438738771416251  1.0000
  O   O5        1.0  0.8904229002285597  0.8001644488645074  0.4251436936714128  1.0000
  O   O6        1.0  0.8903761216958627  0.5844961094840287  0.6407578950962851  1.0000
  O   O7        1.0  0.8921383617137714  0.59675680609219  0.2217189414391778  1.0000
  O   O8        1.0  0.8920915303997544  0.3810867335412994  0.4373332061088456  1.0000
