data_image0
_chemical_formula_structural       NC5NC3BrH3C9H10C6NH7Zn2C4O8
_chemical_formula_sum              "N3 C27 Br1 H20 Zn2 O8"
_cell_length_a       13.839083392302014
_cell_length_b       10.297183801781404
_cell_length_c       9.274774538082514
_cell_angle_alpha    85.03689992379437
_cell_angle_beta     90.35089926540529
_cell_angle_gamma    90.02359494799444

_space_group_name_H-M_alt    "P 1"
_space_group_IT_number       1

loop_
  _space_group_symop_operation_xyz
  'x, y, z'

loop_
  _atom_site_type_symbol
  _atom_site_label
  _atom_site_symmetry_multiplicity
  _atom_site_fract_x
  _atom_site_fract_y
  _atom_site_fract_z
  _atom_site_occupancy
  N   N1        1.0  0.903340562398058  0.4347216094306952  0.40729626266113983  1.0000
  C   C1        1.0  0.8313498652726404  0.3773682799572877  0.40979280424804454  1.0000
  C   C2        1.0  0.7416553094721308  0.30600090946192493  0.4128992072557014  1.0000
  C   C3        1.0  0.654084575584806  0.37467181383533504  0.4099103675357012  1.0000
  C   C4        1.0  0.5660518644443899  0.30732811738033705  0.41284138167783846  1.0000
  C   C5        1.0  0.4762782690474237  0.3781180846009271  0.40976015064652177  1.0000
  N   N2        1.0  0.40411194619610624  0.4350276701154445  0.4072828851576642  1.0000
  C   C6        1.0  0.5655241126617534  0.17103279197789756  0.4187735018640159  1.0000
  C   C7        1.0  0.6526498229767445  0.10225260273552794  0.4217670066974133  1.0000
  C   C8        1.0  0.7408786954967526  0.16895273510449704  0.41886402324247873  1.0000
  Br  Br1       1.0  0.8583021547060573  0.06974005973425634  0.42318224635061774  1.0000
  H   H1        1.0  0.6544384472712047  0.4802891574189776  0.4053132767820944  1.0000
  H   H2        1.0  0.49784061014165926  0.11799523411043267  0.4210816415573604  1.0000
  H   H3        1.0  0.6515327061789358  0.9968598452155842  0.42635394486254174  1.0000
  C   C9        1.0  0.15373509622338255  0.05339746921202093  0.40749408423302613  1.0000
  C   C10       1.0  0.15029677365115335  0.06444595685314303  0.2556220560882805  1.0000
  C   C11       1.0  0.14853499694483574  0.9534899326347281  0.17781357486763394  1.0000
  C   C12       1.0  0.150283045098609  0.8292794702431419  0.25503342260622563  1.0000
  C   C13       1.0  0.15372672446355518  0.8163416993455875  0.40709754664661235  1.0000
  C   C14       1.0  0.15542935312077133  0.9288845947156366  0.48233523763683966  1.0000
  C   C15       1.0  0.1448159409485077  0.9748718468144544  0.013553252522866979  1.0000
  C   C16       1.0  0.0879070500067023  0.8767499909196533  0.9332135315660084  1.0000
  C   C17       1.0  0.19797291096783254  0.8771614106539217  0.9286258001851504  1.0000
  H   H4        1.0  0.1550691673508342  0.37667859213764143  0.4660152477534121  1.0000
  H   H5        1.0  0.14896959435228618  0.16013364811115996  0.19699107420012174  1.0000
  H   H6        1.0  0.14899037707367646  0.7421258503023958  0.19803061180337678  1.0000
  H   H7        1.0  0.15808160687215045  0.9196330113287122  0.5995076965671753  1.0000
  H   H8        1.0  0.16021802927755877  0.5846894353229947  0.694303859510358  1.0000
  H   H9        1.0  0.1436214580935915  0.07600057837354138  0.9607570972928134  1.0000
  H   H10       1.0  0.05593176309514902  0.7925780414561495  0.998894302649357  1.0000
  H   H11       1.0  0.0533994404410032  0.9184023790069104  0.8311029464925754  1.0000
  H   H12       1.0  0.23285672711437333  0.7932401703948089  0.9915205242393141  1.0000
  H   H13       1.0  0.2277939478997988  0.9190518985783873  0.823832556388439  1.0000
  C   C18       1.0  0.15199673359137078  0.4381910585855534  0.98347783521945  1.0000
  C   C19       1.0  0.22046465281814753  0.5148928317977666  0.050172676101200894  1.0000
  C   C20       1.0  0.29326771520063466  0.5808963681260919  0.9693715363987696  1.0000
  C   C21       1.0  0.29819250082543736  0.5704976396555084  0.8203993956874859  1.0000
  C   C22       1.0  0.23003456186783833  0.4966577524745315  0.7520004967178129  1.0000
  C   C23       1.0  0.15546506170184293  0.4315480711610109  0.8311138225813322  1.0000
  N   N3        1.0  0.3628449329909158  0.6574180918507364  0.03907168675011063  1.0000
  H   H14       1.0  0.007564256976912542  0.1841595880219189  0.10953398112071522  1.0000
  H   H15       1.0  0.21872523343021166  0.5210528504520786  0.16618964988641566  1.0000
  H   H16       1.0  0.3544019423035687  0.620722424256019  0.7568410402757793  1.0000
  H   H17       1.0  0.23434343371135014  0.49304690066520696  0.6358292101616292  1.0000
  H   H18       1.0  0.05521703949397128  0.2644018406014583  0.565121552422363  1.0000
  H   H19       1.0  0.36003886988230366  0.6655627294802167  0.15043745076519818  1.0000
  H   H20       1.0  0.41765969229943467  0.7066204678806215  0.9798025841166237  1.0000
  Zn  Zn1       1.0  0.047852403624074606  0.43480638363555985  0.4073007448763052  1.0000
  Zn  Zn2       1.0  0.2596001456920105  0.43493215549856684  0.4072902526811546  1.0000
  C   C24       1.0  0.15480738023730445  0.4276286184084713  0.6708951624166155  1.0000
  C   C25       1.0  0.15264748191913613  0.442111560073375  0.14369597582880145  1.0000
  C   C26       1.0  0.15369978701471187  0.672174065429465  0.40142131964103056  1.0000
  C   C27       1.0  0.15375500321902824  0.197564551661217  0.41316989636448104  1.0000
  O   O1        1.0  0.2332230436470546  0.4434693786047195  0.19746266864007372  1.0000
  O   O2        1.0  0.2349434535405273  0.4263652810665024  0.6171200913235453  1.0000
  O   O3        1.0  0.2340479808933189  0.6238388098308766  0.3995180560618023  1.0000
  O   O4        1.0  0.23411844359621625  0.2459958599383563  0.4150645956874046  1.0000
  O   O5        1.0  0.07333403346072552  0.6237426791543248  0.3995264018660435  1.0000
  O   O6        1.0  0.07422950577149146  0.4262707117396692  0.6171283593636803  1.0000
  O   O7        1.0  0.0725090888427502  0.4433747776079091  0.19746920150801303  1.0000
  O   O8        1.0  0.07340448923081544  0.24590124880208908  0.41507123676574453  1.0000
