data_image0
_chemical_formula_structural       NC9NC3OH6C7OH6C6NCH7Zn2C4O8
_chemical_formula_sum              "N3 C30 O10 H19 Zn2"
_cell_length_a       15.78231758774541
_cell_length_b       9.274078303013075
_cell_length_c       9.273390368590327
_cell_angle_alpha    86.34320467180204
_cell_angle_beta     90.0787864382203
_cell_angle_gamma    89.04960325712263

_space_group_name_H-M_alt    "P 1"
_space_group_IT_number       1

loop_
  _space_group_symop_operation_xyz
  'x, y, z'

loop_
  _atom_site_type_symbol
  _atom_site_label
  _atom_site_symmetry_multiplicity
  _atom_site_fract_x
  _atom_site_fract_y
  _atom_site_fract_z
  _atom_site_occupancy
  N   N1        1.0  0.788745755227488  0.5525688197024385  0.4176167698880713  1.0000
  C   C1        1.0  0.7407540342449914  0.4617214562219383  0.44406366423099236  1.0000
  C   C2        1.0  0.681170370841224  0.3489577998270752  0.47689107745766246  1.0000
  C   C3        1.0  0.7016754352071558  0.20730753929164655  0.5180394664280465  1.0000
  C   C4        1.0  0.6253531398424281  0.13865915723907474  0.5380643263785703  1.0000
  C   C5        1.0  0.5629489506134452  0.243497048609814  0.5076556236433662  1.0000
  C   C6        1.0  0.4699732359281805  0.22411520705966903  0.5133795738962603  1.0000
  C   C7        1.0  0.41552130565782797  0.342960151137992  0.47872433885557486  1.0000
  C   C8        1.0  0.3274093346447407  0.3270675901864102  0.48342578806765396  1.0000
  C   C9        1.0  0.2722403428543936  0.4493702923073854  0.44775308876530534  1.0000
  N   N2        1.0  0.2278974622868814  0.5476858704333687  0.4190754119648694  1.0000
  C   C10       1.0  0.2930690583453967  0.19215322509317923  0.5228363068509252  1.0000
  C   C11       1.0  0.346588594047017  0.07355404098242822  0.5574247288484471  1.0000
  C   C12       1.0  0.4345174994999335  0.08900999279179975  0.5528510243872142  1.0000
  O   O1        1.0  0.5986684180700015  0.3677424280343238  0.47150919417141507  1.0000
  H   H1        1.0  0.7644199640908168  0.15953739010085166  0.5318597443302424  1.0000
  H   H2        1.0  0.6172923394822173  0.02578194362128538  0.5708712948667036  1.0000
  H   H3        1.0  0.44150236811869925  0.44794739377650034  0.44805072696730713  1.0000
  H   H4        1.0  0.2250328169306416  0.1786930268142053  0.5268158342901659  1.0000
  H   H5        1.0  0.31987294704956776  0.9692845506162513  0.5878891101303654  1.0000
  H   H6        1.0  0.47416263109080997  0.9950711841208327  0.580256646515293  1.0000
  C   C13       1.0  0.010851534709126035  0.12661804829086987  0.4170620085625327  1.0000
  C   C14       1.0  0.9944874485953359  0.20888189734308948  0.2868962314596355  1.0000
  C   C15       1.0  0.9708011707240695  0.1427129575881947  0.16162939197121773  1.0000
  C   C16       1.0  0.9632538246898844  0.992204689093162  0.16644771507809408  1.0000
  C   C17       1.0  0.9805718907425902  0.9088431333691988  0.2939341854943849  1.0000
  C   C18       1.0  0.005799846926359813  0.9736255858996511  0.4196426509659401  1.0000
  C   C19       1.0  0.9533648433172313  0.23239930510063078  0.0274291599296157  1.0000
  O   O2        1.0  0.9316044759196287  0.17613169281270058  0.913233272897818  1.0000
  H   H7        1.0  0.008189727066972848  0.2070458910828654  0.7719268996167759  1.0000
  H   H8        1.0  0.9982781689246987  0.32567233165735177  0.28380009453859056  1.0000
  H   H9        1.0  0.944732763803571  0.9385480949848107  0.07123311857655645  1.0000
  H   H10       1.0  0.9761550467873857  0.7924469053666608  0.29314849276052746  1.0000
  H   H11       1.0  0.007717263409587441  0.6772465445517016  0.658018418299428  1.0000
  H   H12       1.0  0.9592147688806384  0.3486327521972025  0.025934051685740256  1.0000
  C   C20       1.0  0.008391781539588637  0.5456240759518796  0.9950929665021735  1.0000
  C   C21       1.0  0.08623645535541974  0.5418931761689851  0.06894522523353275  1.0000
  C   C22       1.0  0.16264368152503839  0.551583960143092  0.9938165471245086  1.0000
  C   C23       1.0  0.16314682819437887  0.5653747439803065  0.8422325395200216  1.0000
  C   C24       1.0  0.08583315362710198  0.5666677343065307  0.7675649841943648  1.0000
  C   C25       1.0  0.008259605108787751  0.5546196059715052  0.841611644385226  1.0000
  N   N3        1.0  0.2409763560960384  0.5767101419270155  0.7617401945636537  1.0000
  C   C26       1.0  0.3246405381340196  0.5759498451519992  0.8290068031698534  1.0000
  H   H13       1.0  0.8750563671369292  0.4778352032832686  0.2802776528588877  1.0000
  H   H14       1.0  0.22103560748067674  0.5496077273261493  0.055127430152495556  1.0000
  H   H15       1.0  0.8114484790766607  0.4447727019318055  0.7451232719901535  1.0000
  H   H16       1.0  0.23816991728912992  0.586298701923935  0.648884349469705  1.0000
  H   H17       1.0  0.3295882181333374  0.6684031950293874  0.8987754699337827  1.0000
  H   H18       1.0  0.3355916310435558  0.47274510775232215  0.894280987954248  1.0000
  H   H19       1.0  0.37423466507363456  0.5863004034214067  0.7443143962033769  1.0000
  Zn  Zn1       1.0  0.9154754697177246  0.5511559421056793  0.41804600731206354  1.0000
  Zn  Zn2       1.0  0.10116778766647178  0.5490871025477702  0.4186579211185266  1.0000
  C   C27       1.0  0.008316947704605884  0.5471738989488584  0.6815839844870419  1.0000
  C   C28       1.0  0.008328326558923786  0.5530709442995907  0.15512009763736656  1.0000
  C   C29       1.0  0.006751246564558279  0.8134621625212732  0.41341118387141984  1.0000
  C   C30       1.0  0.00989397465736541  0.28678094953720085  0.4232929696090375  1.0000
  O   O3        1.0  0.07877633493101083  0.5547787757215852  0.20905886364337833  1.0000
  O   O4        1.0  0.07880511858155254  0.5438947737834354  0.6281092286765009  1.0000
  O   O5        1.0  0.07753984491650007  0.7589259408025886  0.4115577962506487  1.0000
  O   O6        1.0  0.08004154518719964  0.3397476185767503  0.4256101878213352  1.0000
  O   O7        1.0  0.9366016488293137  0.7604954267841821  0.4110937403928614  1.0000
  O   O8        1.0  0.9378669121682891  0.5454659916624875  0.6276451012462727  1.0000
  O   O9        1.0  0.9378381291444652  0.5563499249286656  0.20859300315172913  1.0000
  O   O10       1.0  0.939103339441834  0.34131875861699634  0.42514443536118907  1.0000
