data_image0
_chemical_formula_structural       NC5NC3OH4C6NCH9C7NH4Zn2C4O8
_chemical_formula_sum              "N4 C26 O9 H17 Zn2"
_cell_length_a       13.84702359539666
_cell_length_b       9.273386996610926
_cell_length_c       9.275157849593905
_cell_angle_alpha    86.01375275156522
_cell_angle_beta     89.7265770318806
_cell_angle_gamma    89.39943260271846

_space_group_name_H-M_alt    "P 1"
_space_group_IT_number       1

loop_
  _space_group_symop_operation_xyz
  'x, y, z'

loop_
  _atom_site_type_symbol
  _atom_site_label
  _atom_site_symmetry_multiplicity
  _atom_site_fract_x
  _atom_site_fract_y
  _atom_site_fract_z
  _atom_site_occupancy
  N   N1        1.0  0.9032102756911499  0.5635753132782075  0.40745881445521703  1.0000
  C   C1        1.0  0.8309317919431064  0.5555101275862576  0.4705172707197725  1.0000
  C   C2        1.0  0.7409180057423516  0.5454672676337096  0.5490383353874719  1.0000
  C   C3        1.0  0.6534955371034887  0.5551693010921923  0.47318135059402433  1.0000
  C   C4        1.0  0.5654743403874495  0.5455799896059699  0.5481565846779746  1.0000
  C   C5        1.0  0.475789747708118  0.5555689942340198  0.4700567064484105  1.0000
  N   N2        1.0  0.4036949511221505  0.5635993892618609  0.4072706306434306  1.0000
  C   C6        1.0  0.5648697805068945  0.5262596969549949  0.6992141742343265  1.0000
  C   C7        1.0  0.6519118781329324  0.5165485938787049  0.7751391890536392  1.0000
  C   C8        1.0  0.7402474696114236  0.5260761207890179  0.700648624264353  1.0000
  O   O1        1.0  0.8270096537879571  0.5163484566541221  0.7767050386679335  1.0000
  H   H1        1.0  0.6539684774816541  0.5701371194598244  0.35615492803663573  1.0000
  H   H2        1.0  0.4971892929072533  0.5187123952225869  0.7582231338314438  1.0000
  H   H3        1.0  0.650661076467007  0.5016104705505553  0.8919342071956732  1.0000
  H   H4        1.0  0.82830876758772  0.5023677546602952  0.8860134696284787  1.0000
  C   C9        1.0  0.1564247394731404  0.1399403254002054  0.4080717454221422  1.0000
  C   C10       1.0  0.1737849097105293  0.22216117997537932  0.27776365095022126  1.0000
  C   C11       1.0  0.18205224670601997  0.1564030311057422  0.14745092141109906  1.0000
  C   C12       1.0  0.1730886868535786  0.006069753662167665  0.14411452344777964  1.0000
  C   C13       1.0  0.15743178329624286  0.9228817050063465  0.273969338913703  1.0000
  C   C14       1.0  0.1504897292123295  0.9872233694373229  0.4066701668464624  1.0000
  N   N3        1.0  0.18054796844260346  0.9352492169959898  0.011111726793466614  1.0000
  C   C15       1.0  0.19707112552077954  0.011791401943558948  0.8704752325215561  1.0000
  H   H5        1.0  0.1754223645900581  0.4043657907083681  0.6446610582723182  1.0000
  H   H6        1.0  0.17871606147493657  0.3387902737555306  0.27599376232398276  1.0000
  H   H7        1.0  0.1945340106448572  0.22406249616084684  0.04955723077059205  1.0000
  H   H8        1.0  0.15288053450972353  0.8064585100468384  0.2716976336432755  1.0000
  H   H9        1.0  0.1849605966055474  0.8592452943515058  0.7576571176767839  1.0000
  H   H10       1.0  0.17371117103594846  0.8229105613760657  0.01410266129260052  1.0000
  H   H11       1.0  0.13728059374310164  0.09012081520593429  0.8454588497454791  1.0000
  H   H12       1.0  0.26696976689929874  0.06934875227005907  0.870681491551458  1.0000
  H   H13       1.0  0.19976971617991196  0.9335328465885987  0.7851592271427661  1.0000
  C   C16       1.0  0.1547672389699688  0.5595040548909183  0.984179435539128  1.0000
  C   C17       1.0  0.23767550239491247  0.6065384894353102  0.05376636431721682  1.0000
  C   C18       1.0  0.315550395915126  0.6649167991037275  0.9737621929459636  1.0000
  C   C19       1.0  0.3114231397660494  0.67718875272476  0.8230844646372131  1.0000
  C   C20       1.0  0.23050854202689885  0.6289861950792706  0.7521571798154572  1.0000
  C   C21       1.0  0.15214727674564021  0.5676596200969881  0.8305624784840084  1.0000
  C   C22       1.0  0.3993911089258853  0.7139603685803814  0.04665303438639623  1.0000
  N   N4        1.0  0.46677757921656826  0.7533781742968071  0.10524498541492178  1.0000
  H   H14       1.0  0.9201361338456212  0.5108507470858368  0.09218587769962318  1.0000
  H   H15       1.0  0.37123924486952087  0.7228250497194222  0.7601635639200657  1.0000
  H   H16       1.0  0.2302417720030523  0.6365708799201697  0.6350802735191325  1.0000
  H   H17       1.0  0.9952259359424349  0.5288448415170526  0.5532792897444372  1.0000
  Zn  Zn1       1.0  0.04763934156056071  0.5635784790565403  0.4074128246605757  1.0000
  Zn  Zn2       1.0  0.25926590747196787  0.5635845324665596  0.4073284010554755  1.0000
  C   C23       1.0  0.1526805857512068  0.5603708464307897  0.670587443268737  1.0000
  C   C24       1.0  0.15422696104845746  0.5667939867965965  0.1441539199592257  1.0000
  C   C25       1.0  0.15162439454601592  0.8270135165853286  0.4011923699117701  1.0000
  C   C26       1.0  0.1552830919435935  0.3001495841042304  0.4135490730438929  1.0000
  O   O2        1.0  0.23435686179141535  0.5692365579364382  0.19781079040891814  1.0000
  O   O3        1.0  0.23317036073723357  0.5579317773582053  0.6168660842129297  1.0000
  O   O4        1.0  0.23231638571004437  0.7732491200728353  0.3993276544127924  1.0000
  O   O5        1.0  0.23521076486698345  0.3539192244986873  0.4153491121675904  1.0000
  O   O6        1.0  0.07169441194779734  0.7732437870238446  0.3993921135696874  1.0000
  O   O7        1.0  0.07254837506729372  0.5579281768464737  0.6169304636633515  1.0000
  O   O8        1.0  0.07373488190123356  0.5692328904563797  0.19787343731172968  1.0000
  O   O9        1.0  0.07458878471067479  0.3539155477411815  0.41541186713309464  1.0000
