data_image0
_chemical_formula_structural       NC9NC3SH6C6SCNH4C8NH11Zn2C4O8
_chemical_formula_sum              "N4 C31 S2 H21 Zn2 O8"
_cell_length_a       16.77567553997237
_cell_length_b       10.302215558581764
_cell_length_c       9.275652972338538
_cell_angle_alpha    85.94620534348942
_cell_angle_beta     90.8258093540976
_cell_angle_gamma    90.91242892959859

_space_group_name_H-M_alt    "P 1"
_space_group_IT_number       1

loop_
  _space_group_symop_operation_xyz
  'x, y, z'

loop_
  _atom_site_type_symbol
  _atom_site_label
  _atom_site_symmetry_multiplicity
  _atom_site_fract_x
  _atom_site_fract_y
  _atom_site_fract_z
  _atom_site_occupancy
  N   N1        1.0  0.7443639528250808  0.429855893488645  0.4180371222248538  1.0000
  C   C1        1.0  0.689820684074704  0.4794558605663073  0.4642239860894206  1.0000
  C   C2        1.0  0.622131672575539  0.5410061374141443  0.5215383505123405  1.0000
  C   C3        1.0  0.6247308879079827  0.6297234788008785  0.6270673556763857  1.0000
  C   C4        1.0  0.549250891296224  0.6734014508038645  0.6620556719870809  1.0000
  C   C5        1.0  0.4869048684287759  0.6188865724788425  0.5836628477448167  1.0000
  C   C6        1.0  0.4004708616299477  0.6450192485633517  0.5957141626810614  1.0000
  C   C7        1.0  0.34336349501587676  0.5650520673937508  0.5309971703682252  1.0000
  C   C8        1.0  0.2617737893498249  0.5891675459218091  0.5418751479678503  1.0000
  C   C9        1.0  0.2039918204880847  0.5065228781237505  0.4756086775920585  1.0000
  N   N2        1.0  0.15755218483781394  0.44008841027278645  0.4223402261892914  1.0000
  C   C10       1.0  0.2364609418476874  0.6935625728765688  0.6172913706726109  1.0000
  C   C11       1.0  0.29247453569225684  0.7736853716749564  0.6814960560994063  1.0000
  C   C12       1.0  0.3739080463765113  0.7499350683110783  0.6709451635363906  1.0000
  S   S1        1.0  0.5269936802759317  0.5161328337865497  0.4714079942521183  1.0000
  H   H1        1.0  0.6793550598339934  0.6618894925087441  0.677876716230679  1.0000
  H   H2        1.0  0.5413448396460178  0.7417877405967336  0.7436373039511937  1.0000
  H   H3        1.0  0.3618969741579953  0.4834148332084325  0.47275954121754427  1.0000
  H   H4        1.0  0.1735190221103345  0.7130721496638066  0.6262740247804893  1.0000
  H   H5        1.0  0.2727587817567209  0.854709051056123  0.7393811331061414  1.0000
  H   H6        1.0  0.4155724034621051  0.8148662420895229  0.7206431154113377  1.0000
  C   C13       1.0  0.9508825268361436  0.05369784260584809  0.4201482220696045  1.0000
  C   C14       1.0  0.03097704743783014  0.051882823322538366  0.46633682546329003  1.0000
  C   C15       1.0  0.07083743636299622  0.9339416748425992  0.48977808357416386  1.0000
  C   C16       1.0  0.031184789702253024  0.8167134941830811  0.46646103476649436  1.0000
  C   C17       1.0  0.9510412637235015  0.8162367288287395  0.42024166703878274  1.0000
  C   C18       1.0  0.911321526403898  0.9352595231262211  0.39739478989581045  1.0000
  S   S2        1.0  0.17316376092641672  0.9331423378030912  0.5481469748356768  1.0000
  C   C19       1.0  0.14763496127396494  0.9207893249186333  0.7325834925766017  1.0000
  N   N3        1.0  0.13087431151276133  0.9126906584008817  0.8534971527779247  1.0000
  H   H7        1.0  0.06270666628159918  0.14174959728594153  0.48455242147187016  1.0000
  H   H8        1.0  0.06305680750280884  0.7263025458292726  0.4847618438344445  1.0000
  H   H9        1.0  0.849549449101422  0.935809799617108  0.36179251203275165  1.0000
  H   H10       1.0  0.8000043483565994  0.6081305324114104  0.3329754613407383  1.0000
  C   C20       1.0  0.9491864701423075  0.432392831105501  0.9969054319391462  1.0000
  C   C21       1.0  0.8974904677198453  0.5160416454843312  0.06252439939792032  1.0000
  C   C22       1.0  0.8520912584609505  0.6074227102070074  0.9793626839334846  1.0000
  C   C23       1.0  0.8573108377056368  0.6138774527330023  0.8286324286646658  1.0000
  C   C24       1.0  0.907251404630207  0.530242960128589  0.7615871088206073  1.0000
  C   C25       1.0  0.952737371012407  0.4375417800991648  0.8434844861812443  1.0000
  C   C26       1.0  0.7961515926699799  0.6948629407317715  0.05133452303635666  1.0000
  C   C27       1.0  0.7141616935863276  0.6293950459484023  0.07126035815179765  1.0000
  N   N4        1.0  0.6601051383660018  0.7157985022583805  0.1389158440437912  1.0000
  H   H11       1.0  0.007585210859376361  0.24093657513039227  0.29409763496346897  1.0000
  H   H12       1.0  0.893697285883649  0.5123354221956608  0.17931199098931105  1.0000
  H   H13       1.0  0.8219724619038654  0.6829362169189346  0.7626896192187154  1.0000
  H   H14       1.0  0.9086920094226816  0.5358548132091233  0.6445829099051118  1.0000
  H   H15       1.0  0.06205013983873964  0.32133203824708934  0.5741284660669987  1.0000
  H   H16       1.0  0.8211248586844446  0.7182950454400482  0.15831165645366058  1.0000
  H   H17       1.0  0.7897882449345055  0.7884426371589879  0.984970043014845  1.0000
  H   H18       1.0  0.6892306065984557  0.6070071802728533  0.9638666352778243  1.0000
  H   H19       1.0  0.7197704178974719  0.5365436390086828  0.13950024468328226  1.0000
  H   H20       1.0  0.6037832625469399  0.670803383115632  0.14272685710088015  1.0000
  H   H21       1.0  0.6787761037454392  0.7227594177491063  0.24623100377666127  1.0000
  Zn  Zn1       1.0  0.8636011883300884  0.43280536099028644  0.4192872374696484  1.0000
  Zn  Zn2       1.0  0.038314991813250605  0.43712842303963295  0.42110194708551707  1.0000
  C   C28       1.0  0.9520632982560643  0.4313960694700809  0.6834622716130205  1.0000
  C   C29       1.0  0.9498547906910697  0.43853940084170806  0.1569270744372983  1.0000
  C   C30       1.0  0.9509830839226494  0.6720656348581078  0.4144799578350702  1.0000
  C   C31       1.0  0.9509349454044312  0.1978682745298377  0.42590946425421816  1.0000
  O   O1        1.0  0.016382061886304426  0.44223716097469523  0.211320471622804  1.0000
  O   O2        1.0  0.018139759357974395  0.43097843140019454  0.6304457819766321  1.0000
  O   O3        1.0  0.01726658511332091  0.6253221361331824  0.4132406513881719  1.0000
  O   O4        1.0  0.017255176061583777  0.24789346339712195  0.4285254935149352  1.0000
  O   O5        1.0  0.8846609444604774  0.6220403191589161  0.411863690413377  1.0000
  O   O6        1.0  0.8855341187039061  0.4276981738758896  0.6290687443360155  1.0000
  O   O7        1.0  0.8837764140068424  0.4389568476665529  0.20994170094510767  1.0000
  O   O8        1.0  0.8846495286302176  0.24461314145968285  0.4271468309067159  1.0000
