data_image0
_chemical_formula_structural       NC9NC3SH6C8NH7C6NCOCH9Zn2C4O8
_chemical_formula_sum              "N4 C32 S1 H22 O9 Zn2"
_cell_length_a       16.77567553997237
_cell_length_b       9.274263428431858
_cell_length_c       10.30027207537675
_cell_angle_alpha    85.50073118393561
_cell_angle_beta     90.39584268328142
_cell_angle_gamma    91.51050711931723

_space_group_name_H-M_alt    "P 1"
_space_group_IT_number       1

loop_
  _space_group_symop_operation_xyz
  'x, y, z'

loop_
  _atom_site_type_symbol
  _atom_site_label
  _atom_site_symmetry_multiplicity
  _atom_site_fract_x
  _atom_site_fract_y
  _atom_site_fract_z
  _atom_site_occupancy
  N   N1        1.0  0.7602544514942368  0.6000236737699978  0.5736772147917704  1.0000
  C   C1        1.0  0.705832796691616  0.6548085392314243  0.6152508215220991  1.0000
  C   C2        1.0  0.6382947020822951  0.722792935251338  0.6668404864011233  1.0000
  C   C3        1.0  0.6410140275326104  0.8206214695915939  0.7618476398388612  1.0000
  C   C4        1.0  0.5656652870402156  0.8689056713740283  0.7933366130828856  1.0000
  C   C5        1.0  0.5033030481638994  0.8088884130848414  0.7227513782617285  1.0000
  C   C6        1.0  0.4169853300201173  0.8378401172003107  0.7335889853394548  1.0000
  C   C7        1.0  0.3596404569778914  0.749444370031727  0.6753440148822105  1.0000
  C   C8        1.0  0.2781590969157069  0.7761630011127493  0.6851260540305224  1.0000
  C   C9        1.0  0.2201290448769025  0.6848031730163234  0.625487138980634  1.0000
  N   N2        1.0  0.1734899846627744  0.6113629633044879  0.5775462631247086  1.0000
  C   C10       1.0  0.2531948636366083  0.8916257361831172  0.7529917880755423  1.0000
  C   C11       1.0  0.3094491392172953  0.9801980376302777  0.8107750874317118  1.0000
  C   C12       1.0  0.3907752547668313  0.9538828471338991  0.8012874527202141  1.0000
  S   S1        1.0  0.5432103636583776  0.6955111198848535  0.6216953324497514  1.0000
  H   H1        1.0  0.6956284074258199  0.8560017559936149  0.8075990051183435  1.0000
  H   H2        1.0  0.557850815582743  0.9443134938204254  0.8667842353620616  1.0000
  H   H3        1.0  0.3778981811812643  0.6591469099954914  0.6229377694306977  1.0000
  H   H4        1.0  0.19033982124934426  0.9132399849053727  0.7610697606421397  1.0000
  H   H5        1.0  0.2900067058295194  0.06981625096889935  0.862864172502984  1.0000
  H   H6        1.0  0.43264457768350345  0.0256780386067641  0.8460126933436012  1.0000
  C   C13       1.0  0.9643527782755918  0.18204064175601564  0.5758641375501712  1.0000
  C   C14       1.0  0.954050182675276  0.26516431401661  0.4570842746262897  1.0000
  C   C15       1.0  0.9515683004615564  0.2002311157406105  0.3394519843113877  1.0000
  C   C16       1.0  0.9599757995960508  0.05068071145085717  0.33769601674119  1.0000
  C   C17       1.0  0.968138491806161  0.9659940295474999  0.4556597912961329  1.0000
  C   C18       1.0  0.9693992268538725  0.029335169763661018  0.57537069873889  1.0000
  C   C19       1.0  0.9561103246106228  0.9806366299938347  0.21095290834191396  1.0000
  C   C20       1.0  0.8733795431462256  0.939441470132077  0.18131626833028447  1.0000
  N   N3        1.0  0.8080819011811022  0.9069256595027572  0.1579332879369788  1.0000
  H   H7        1.0  0.03315425021848961  0.26207762117852074  0.8759090950514217  1.0000
  H   H8        1.0  0.9496423837715501  0.38166309844238944  0.4549160773458223  1.0000
  H   H9        1.0  0.9438327969214461  0.2669821104510841  0.2493831662825707  1.0000
  H   H10       1.0  0.9715814694325723  0.849599614980858  0.45398144669025337  1.0000
  H   H11       1.0  0.012617737840421308  0.7329462435967584  0.7791126709135026  1.0000
  H   H12       1.0  0.9929497772829008  0.8825302586625625  0.2163234133241709  1.0000
  H   H13       1.0  0.9796606640243758  0.05612761497102503  0.13035782074686897  1.0000
  C   C21       1.0  0.9668834135604097  0.6058345713410713  0.19426465346972566  1.0000
  C   C22       1.0  0.8854809977006516  0.6377231107454915  0.19004164857375727  1.0000
  C   C23       1.0  0.8447144259683866  0.6557473974615815  0.07050019802686425  1.0000
  C   C24       1.0  0.8854870982085008  0.6373944134651659  0.9549079566604468  1.0000
  C   C25       1.0  0.9668686100909756  0.6055411471855904  0.9569701959593369  1.0000
  C   C26       1.0  0.007208087700655285  0.5904689371115455  0.07714846124870856  1.0000
  N   N4        1.0  0.7610790861437062  0.6861640139836522  0.06471459344419506  1.0000
  C   C27       1.0  0.7220315440609782  0.7748854115632646  0.1517436167179147  1.0000
  O   O1        1.0  0.7620695923848698  0.8531329239687977  0.22433203200816898  1.0000
  C   C28       1.0  0.6332098086299478  0.7830573815363444  0.14979278646215977  1.0000
  H   H14       1.0  0.9975583060454242  0.5916264807098024  0.5234386763713637  1.0000
  H   H15       1.0  0.8534349160617615  0.6457014156687675  0.27987909024677005  1.0000
  H   H16       1.0  0.8534060947276059  0.649328605896825  0.8632301545981731  1.0000
  H   H17       1.0  0.06999637765291511  0.56591346726316  0.07959395998526997  1.0000
  H   H18       1.0  0.9974289601422351  0.5913517136399566  0.6304900337304442  1.0000
  H   H19       1.0  0.7275501133413039  0.6492719077817065  0.9874668379068217  1.0000
  H   H20       1.0  0.606090589374253  0.6745167160158461  0.1372319045325887  1.0000
  H   H21       1.0  0.6115918448154777  0.8209933818358847  0.2426108781287459  1.0000
  H   H22       1.0  0.6145111597609042  0.8596349145559026  0.06770605561668486  1.0000
  Zn  Zn1       1.0  0.8795052797747702  0.6032920931141574  0.5748012480642137  1.0000
  Zn  Zn2       1.0  0.05423908111433584  0.6080827708689875  0.5764329013693492  1.0000
  C   C29       1.0  0.9668353781282029  0.5998492964278257  0.8128058213347071  1.0000
  C   C30       1.0  0.9669109016877159  0.6115274401201263  0.3384284723173807  1.0000
  C   C31       1.0  0.9684413325728067  0.8691803099826296  0.5702889631470505  1.0000
  C   C32       1.0  0.9653048772938889  0.34219469160450244  0.5809454001934242  1.0000
  O   O2        1.0  0.033230656443556945  0.6152497622040511  0.38743037446679995  1.0000
  O   O3        1.0  0.033134529049265726  0.5997618997066836  0.7650419330936493  1.0000
  O   O4        1.0  0.034430463648937204  0.8172500742803273  0.5692078450391918  1.0000
  O   O5        1.0  0.03193466228243525  0.39776159635339275  0.5832643645879323  1.0000
  O   O6        1.0  0.9018096389786097  0.8136132659965036  0.5679697842819953  1.0000
  O   O7        1.0  0.9005137147000998  0.5961268247504283  0.7638038020844311  1.0000
  O   O8        1.0  0.9006098418783495  0.6116146375761466  0.38619068215283026  1.0000
  O   O9        1.0  0.8993138476506163  0.39412646136925256  0.5820247696436529  1.0000
