data_image0
_chemical_formula_structural       NC9NC3SH6C9H10C8NH11Zn2C4O8
_chemical_formula_sum              "N3 C33 S1 H27 Zn2 O8"
_cell_length_a       16.77567553997237
_cell_length_b       9.272676604525723
_cell_length_c       9.275652972338538
_cell_angle_alpha    86.18554014345204
_cell_angle_beta     90.8258093540976
_cell_angle_gamma    91.44448428757873

_space_group_name_H-M_alt    "P 1"
_space_group_IT_number       1

loop_
  _space_group_symop_operation_xyz
  'x, y, z'

loop_
  _atom_site_type_symbol
  _atom_site_label
  _atom_site_symmetry_multiplicity
  _atom_site_fract_x
  _atom_site_fract_y
  _atom_site_fract_z
  _atom_site_occupancy
  N   N1        1.0  0.7525685598162468  0.5884474450007617  0.4248800684735625  1.0000
  C   C1        1.0  0.6983098989333483  0.6435487606895793  0.4713043058456252  1.0000
  C   C2        1.0  0.6309740669636965  0.7119258471101506  0.5289132350830696  1.0000
  C   C3        1.0  0.6340823482255767  0.8104832156497079  0.6348668200954775  1.0000
  C   C4        1.0  0.5588529786847609  0.8590057019694171  0.6700641686702145  1.0000
  C   C5        1.0  0.4961941458664186  0.7984443407971165  0.5914104493378705  1.0000
  C   C6        1.0  0.40991009007865176  0.8274755059281641  0.6035868289737083  1.0000
  C   C7        1.0  0.3523438665289444  0.7386388160273053  0.538487132973811  1.0000
  C   C8        1.0  0.2708925370619402  0.7654290474256629  0.5494805214509106  1.0000
  C   C9        1.0  0.21263634767050446  0.67361789918018  0.48281853358132115  1.0000
  N   N2        1.0  0.1658155066820827  0.5998148948365913  0.4292321428011412  1.0000
  C   C10       1.0  0.24617871507831582  0.8814029819964271  0.625396353634736  1.0000
  C   C11       1.0  0.30265205880269247  0.9704125497557946  0.6899844874971186  1.0000
  C   C12       1.0  0.3839492886869662  0.9440279966912906  0.6793199316970944  1.0000
  S   S1        1.0  0.535693350014867  0.6842937369262483  0.4786638411767981  1.0000
  H   H1        1.0  0.6888910908500383  0.8462169021860877  0.6858301194514644  1.0000
  H   H2        1.0  0.5513393320551512  0.9349770133366956  0.7519730809618987  1.0000
  H   H3        1.0  0.3704089058615786  0.6479468402490998  0.4798588076641901  1.0000
  H   H4        1.0  0.18334874257343017  0.9030764510095337  0.6344723758826477  1.0000
  H   H5        1.0  0.2834012240588931  0.06042291869133942  0.7482573243371371  1.0000
  H   H6        1.0  0.42598622511062695  0.016160970062211618  0.7293286285457519  1.0000
  C   C13       1.0  0.9569287142354398  0.17056806459452267  0.4251909663994127  1.0000
  C   C14       1.0  0.9255105551332616  0.23461010088997392  0.5442345218375042  1.0000
  C   C15       1.0  0.9014028599913917  0.15064103918899735  0.6668778184528625  1.0000
  C   C16       1.0  0.9079360814075453  0.00012325685934943422  0.6746047886560116  1.0000
  C   C17       1.0  0.9380431121498749  0.934587978620655  0.5544368994161534  1.0000
  C   C18       1.0  0.9614630029963412  0.017683482999797603  0.4289337940655898  1.0000
  C   C19       1.0  0.8810426494461356  0.916703924732336  0.8127833478195863  1.0000
  C   C20       1.0  0.8406814537775258  0.7694021715277772  0.7980069273102612  1.0000
  C   C21       1.0  0.9251368696679587  0.7795813214280017  0.8598851107871295  1.0000
  H   H7        1.0  0.973644946949405  0.46825586831940486  0.18917047333319403  1.0000
  H   H8        1.0  0.9213024880678814  0.3510159361869331  0.5440516413992516  1.0000
  H   H9        1.0  0.8781604514541405  0.20406088575531034  0.7571986801795216  1.0000
  H   H10       1.0  0.9418528187112829  0.8183014907684977  0.5558154969319677  1.0000
  H   H11       1.0  0.9806729451642445  0.9390086261093733  0.07620367416761464  1.0000
  H   H12       1.0  0.8588508087792412  0.9768304023021782  0.9033029559408203  1.0000
  H   H13       1.0  0.8365197604632093  0.7292940132790086  0.6880794899564362  1.0000
  H   H14       1.0  0.7948170571419442  0.7399208795459186  0.8806789751667876  1.0000
  H   H15       1.0  0.9722533961030084  0.7455278919527831  0.7876302207390873  1.0000
  H   H16       1.0  0.9286306288461664  0.7560432716701156  0.9787410004671039  1.0000
  C   C22       1.0  0.9574056342480765  0.5912657654300943  0.0037605193608416508  1.0000
  C   C23       1.0  0.9061896142143157  0.6841924345318375  0.0697798099173279  1.0000
  C   C24       1.0  0.8613147555042406  0.78570897157672  0.9870554222401848  1.0000
  C   C25       1.0  0.8665713724853142  0.7928796377398247  0.8363560578159298  1.0000
  C   C26       1.0  0.916032039200465  0.6999688789029442  0.768910483414726  1.0000
  C   C27       1.0  0.9609860801255456  0.5969858068067606  0.8503642152338631  1.0000
  C   C28       1.0  0.8058768274967344  0.88284757932023  0.059445729246137446  1.0000
  C   C29       1.0  0.7235112693346515  0.8101183548775523  0.07905825077028661  1.0000
  N   N3        1.0  0.6699505028192784  0.9061051952576382  0.14712724281344136  1.0000
  H   H17       1.0  0.01470578639868281  0.3785742613295887  0.30003645881302177  1.0000
  H   H18       1.0  0.9023751658255643  0.6800751378585852  0.18654966441586485  1.0000
  H   H19       1.0  0.8316292604063568  0.8695980105671802  0.7707437469981819  1.0000
  H   H20       1.0  0.9175048451743506  0.7062031670770798  0.6519331414777283  1.0000
  H   H21       1.0  0.06963202982361302  0.4678867357956628  0.5804520432579574  1.0000
  H   H22       1.0  0.8309845484664032  0.908878640928851  0.16653500307825064  1.0000
  H   H23       1.0  0.800050446203147  0.9868066078983346  0.9935290991342128  1.0000
  H   H24       1.0  0.6984517193037026  0.7852473534058024  0.9715573849582461  1.0000
  H   H25       1.0  0.7285872061768023  0.7069683935494429  0.14685377281042666  1.0000
  H   H26       1.0  0.613370442052511  0.8561194712659559  0.15072292005721555  1.0000
  H   H27       1.0  0.6886614103888066  0.9138381762359744  0.2544757158128872  1.0000
  Zn  Zn1       1.0  0.8718227195594203  0.5917240508030879  0.4261442991601083  1.0000
  Zn  Zn2       1.0  0.04656132905644371  0.5965266025134629  0.42797969791071244  1.0000
  C   C30       1.0  0.9602767428781289  0.5901584486156746  0.6903125887733736  1.0000
  C   C31       1.0  0.9581092242175259  0.598094078015621  0.16381157786273937  1.0000
  C   C32       1.0  0.9605775063115893  0.8575217248527776  0.4224820616245164  1.0000
  C   C33       1.0  0.9578083922073289  0.3307290677258045  0.4316421735803604  1.0000
  O   O1        1.0  0.024657713403172476  0.6022019728476922  0.2182226716384723  1.0000
  O   O2        1.0  0.026350807545374662  0.5896944884864983  0.6372941004216768  1.0000
  O   O3        1.0  0.02659279023772654  0.8055937008762879  0.4210190520403243  1.0000
  O   O4        1.0  0.024415670682505396  0.38630276840695565  0.43449761135773907  1.0000
  O   O5        1.0  0.8939683183036233  0.8019478832722391  0.4196263850791744  1.0000
  O   O6        1.0  0.8937263445582732  0.5860504032978058  0.6359013642578568  1.0000
  O   O7        1.0  0.8920332428705862  0.5985578256879336  0.21682820217060497  1.0000
  O   O8        1.0  0.8917912005484991  0.38265861166078774  0.43310324991805116  1.0000
