data_image0
_chemical_formula_structural       NC5NC3F3CH3C6NCH9C6ClH5Zn2C4O8
_chemical_formula_sum              "N3 C26 F3 H17 Cl1 Zn2 O8"
_cell_length_a       13.85151926108384
_cell_length_b       9.273386996610926
_cell_length_c       10.30297407846105
_cell_angle_alpha    85.46621229036245
_cell_angle_beta     89.99987480856441
_cell_angle_gamma    89.3985898819531

_space_group_name_H-M_alt    "P 1"
_space_group_IT_number       1

loop_
  _space_group_symop_operation_xyz
  'x, y, z'

loop_
  _atom_site_type_symbol
  _atom_site_label
  _atom_site_symmetry_multiplicity
  _atom_site_fract_x
  _atom_site_fract_y
  _atom_site_fract_z
  _atom_site_occupancy
  N   N1        1.0  0.8979893267991009  0.5788743762722142  0.5656244719250074  1.0000
  C   C1        1.0  0.8257235512938637  0.5697910734794709  0.621894532549929  1.0000
  C   C2        1.0  0.7358192463513075  0.5584901991637112  0.6919025377217758  1.0000
  C   C3        1.0  0.6482284727116309  0.567715056392474  0.6238723323231752  1.0000
  C   C4        1.0  0.5607672569398735  0.5584901860131939  0.6919025196768613  1.0000
  C   C5        1.0  0.4707042990609174  0.5697910896351441  0.62189461724186  1.0000
  N   N2        1.0  0.3983111414520355  0.5788743383693358  0.5656245669506439  1.0000
  C   C6        1.0  0.5608945674612086  0.5390421160196097  0.8281229369991727  1.0000
  C   C7        1.0  0.6485168372276991  0.5266262685580902  0.8972945106761114  1.0000
  C   C8        1.0  0.6486261407927834  0.5110433124578446  0.04413219218230391  1.0000
  F   F1        1.0  0.7300864067772931  0.4362007979061433  0.09071503195324804  1.0000
  F   F2        1.0  0.5682175923315395  0.43620076729528495  0.09071512142393168  1.0000
  F   F3        1.0  0.6476713067696599  0.6469079518724417  0.09050866247452205  1.0000
  C   C9        1.0  0.7359648949717149  0.5390420207308101  0.8281229548071308  1.0000
  H   H1        1.0  0.6481216938804472  0.582932701736538  0.518405416282953  1.0000
  H   H2        1.0  0.49280763770158204  0.5338621711505471  0.880051310150383  1.0000
  H   H3        1.0  0.8041243917895624  0.5338620902214843  0.8800512733094061  1.0000
  C   C10       1.0  0.15112358758228117  0.15522038342759648  0.5662624614369847  1.0000
  C   C11       1.0  0.16807489217534144  0.2386959935936561  0.44887695125288074  1.0000
  C   C12       1.0  0.17593629735199026  0.17419311534930035  0.3314841838693423  1.0000
  C   C13       1.0  0.16696531930728975  0.023892451243622704  0.3284754663069558  1.0000
  C   C14       1.0  0.15171532647738056  0.9394539267005274  0.4454532056976541  1.0000
  C   C15       1.0  0.145186164460003  0.002517240144903172  0.5649978019932935  1.0000
  N   N3        1.0  0.17401060669027232  0.9543531485897511  0.20865900902257925  1.0000
  C   C16       1.0  0.19009320838984775  0.032249657270155156  0.08196861095091501  1.0000
  H   H4        1.0  0.1708471761134125  0.4173650826016156  0.7794064585290408  1.0000
  H   H5        1.0  0.17299896821199087  0.3553418869985878  0.44728417280582966  1.0000
  H   H6        1.0  0.18811108338608556  0.24279524195732652  0.24329836856741324  1.0000
  H   H7        1.0  0.14715852357507653  0.823052857412554  0.44340513923335084  1.0000
  H   H8        1.0  0.18073198060514417  0.8711552586158562  0.8812050932255635  1.0000
  H   H9        1.0  0.16718528139167455  0.8419860258804696  0.21135115217683428  1.0000
  H   H10       1.0  0.13024464957196535  0.11082322227847752  0.059411696900673265  1.0000
  H   H11       1.0  0.25996982480331715  0.08980140423217953  0.08217811349031301  1.0000
  H   H12       1.0  0.19252691464976748  0.9548130705085021  0.005110410909413557  1.0000
  C   C17       1.0  0.1481548944241382  0.5788688406744733  0.18438762560656574  1.0000
  C   C18       1.0  0.1324118282135207  0.42902765464797615  0.1938449474947752  1.0000
  C   C19       1.0  0.12460059770203258  0.3546805393689936  0.08158062148371426  1.0000
  C   C20       1.0  0.13241187082032413  0.42902773612427214  0.9587370484020606  1.0000
  C   C21       1.0  0.1481548924834677  0.5788687662047443  0.9468726447911394  1.0000
  C   C22       1.0  0.1559497023186478  0.6530589775946045  0.06035168757053877  1.0000
  Cl  Cl1       1.0  0.10493377113219737  0.16749330093764203  0.0948986060117667  1.0000
  H   H13       1.0  0.15408559240590108  0.6353114291943709  0.5081281547730236  1.0000
  H   H14       1.0  0.12615045628019872  0.36943231586848313  0.28813157497299935  1.0000
  H   H15       1.0  0.12615052388642733  0.3694322952825919  0.8729306089298268  1.0000
  H   H16       1.0  0.16809118419463845  0.7686209976919718  0.0521295920421434  1.0000
  H   H17       1.0  0.1540854087917083  0.6353114164276372  0.6151005243106833  1.0000
  Zn  Zn1       1.0  0.04237142212822943  0.5788705139189294  0.5656319881482943  1.0000
  Zn  Zn2       1.0  0.25392911112587246  0.5788664334317188  0.5656276536589235  1.0000
  C   C23       1.0  0.14819299975155747  0.5731214871453307  0.8027552010790902  1.0000
  C   C24       1.0  0.14810983095020383  0.5846172804656706  0.3285045653879839  1.0000
  C   C25       1.0  0.14630351091918214  0.8423601128512177  0.5600633724799484  1.0000
  C   C26       1.0  0.1499992597387949  0.3153769214568176  0.5711964657914326  1.0000
  O   O1        1.0  0.22837979177371381  0.5865386669063966  0.3768698913814157  1.0000
  O   O2        1.0  0.228490437392142  0.5711959153579866  0.7543862132108976  1.0000
  O   O3        1.0  0.2269635689833739  0.7886095106234448  0.5584108423152778  1.0000
  O   O4        1.0  0.2299065879198563  0.36912508196263105  0.5728451649207216  1.0000
  O   O5        1.0  0.06639387313997804  0.7886118653909806  0.5584144768811448  1.0000
  O   O6        1.0  0.06792072939826288  0.5712000034314517  0.754389775967105  1.0000
  O   O7        1.0  0.06781008419637002  0.5865427047061289  0.37687189332957005  1.0000
  O   O8        1.0  0.06933688041086988  0.36912910944363353  0.5728472642198381  1.0000
