data_image0
_chemical_formula_structural       NC9NC3OCH8C12NCOCH13C12IH9Zn2C4O8
_chemical_formula_sum              "N3 C43 O10 H30 I1 Zn2"
_cell_length_a       17.728193572023454
_cell_length_b       10.299155265289647
_cell_length_c       10.29977335064465
_cell_angle_alpha    85.52787819197465
_cell_angle_beta     90.71329701694225
_cell_angle_gamma    88.43175330785004

_space_group_name_H-M_alt    "P 1"
_space_group_IT_number       1

loop_
  _space_group_symop_operation_xyz
  'x, y, z'

loop_
  _atom_site_type_symbol
  _atom_site_label
  _atom_site_symmetry_multiplicity
  _atom_site_fract_x
  _atom_site_fract_y
  _atom_site_fract_z
  _atom_site_occupancy
  N   N1        1.0  0.7101607187534946  0.38745707922967915  0.5847820186529081  1.0000
  C   C1        1.0  0.6495550165096738  0.3500221125346532  0.5977978915322213  1.0000
  C   C2        1.0  0.5741092423851804  0.30348544753726325  0.613997297407054  1.0000
  C   C3        1.0  0.5622302746721862  0.1754340549764888  0.6234536820912531  1.0000
  C   C4        1.0  0.4855283560568329  0.1259740252921977  0.6384183880326222  1.0000
  C   C5        1.0  0.42736989469115316  0.20864541507909173  0.655865245127895  1.0000
  C   C6        1.0  0.34932970302982025  0.1635872501747111  0.6776123456912657  1.0000
  C   C7        1.0  0.2879726508430164  0.24907359574565247  0.6421263609018155  1.0000
  C   C8        1.0  0.21370541836201307  0.20976158797461952  0.6622856325365145  1.0000
  C   C9        1.0  0.1513690483600395  0.2977855752298415  0.6247245659758971  1.0000
  N   N2        1.0  0.10126401791173394  0.3685483324224775  0.5945290190923702  1.0000
  C   C10       1.0  0.20016389296163575  0.08484305496019884  0.7189850191912068  1.0000
  C   C11       1.0  0.2606223662753923  0.9996738621736554  0.7558794910808695  1.0000
  C   C12       1.0  0.3347860479546082  0.038496164005315386  0.7358499420391723  1.0000
  O   O1        1.0  0.4407068914913571  0.34244249382844627  0.6545323525029838  1.0000
  C   C13       1.0  0.5084184114699977  0.39984225908226284  0.6059063521012511  1.0000
  H   H1        1.0  0.6091671797596756  0.10596821902879695  0.621371908185326  1.0000
  H   H2        1.0  0.4778906876038919  0.022316830085359358  0.6364647823854024  1.0000
  H   H3        1.0  0.2978454294988997  0.34592042105079424  0.5976723198498131  1.0000
  H   H4        1.0  0.1429553937447941  0.05354729778100519  0.7351340566177238  1.0000
  H   H5        1.0  0.25001283797808566  0.9034858181805686  0.8007944882679434  1.0000
  H   H6        1.0  0.3803299000438026  0.9712502598166503  0.768289207116752  1.0000
  H   H7        1.0  0.49893378335182015  0.4358060683390057  0.5023691765935605  1.0000
  H   H8        1.0  0.5212937024033087  0.4842180232960743  0.6624655807229105  1.0000
  C   C14       1.0  0.9058002939167369  0.9966009406836541  0.5897764174490572  1.0000
  C   C15       1.0  0.8928963902284276  0.0069751344894515245  0.4545302066969928  1.0000
  C   C16       1.0  0.8862807398229839  0.8951009640682784  0.3858379836081658  1.0000
  C   C17       1.0  0.8927159189094426  0.7717242047874501  0.45421792549742546  1.0000
  C   C18       1.0  0.9056317231091062  0.7593941714354051  0.5895460230562966  1.0000
  C   C19       1.0  0.912097753519979  0.8723537681498387  0.6564922163842524  1.0000
  C   C20       1.0  0.8726308994407462  0.9070492327273978  0.24276384674196483  1.0000
  C   C21       1.0  0.9108953180045481  0.9993404757045389  0.16230020923563648  1.0000
  C   C22       1.0  0.8980561284370724  0.010453406261745847  0.027658067706958226  1.0000
  C   C23       1.0  0.8471650264431289  0.9285922765143814  0.9706394413400767  1.0000
  C   C24       1.0  0.8079787895552762  0.8381619117773058  0.05101194629415385  1.0000
  C   C25       1.0  0.8208454614717601  0.826791647004763  0.18561743742343895  1.0000
  N   N3        1.0  0.8318969649558102  0.9396226482653947  0.8326984533135979  1.0000
  C   C26       1.0  0.8869906032963255  0.9739321006830287  0.7358541697634724  1.0000
  O   O2        1.0  0.9562247688264367  0.9731087695806748  0.7654379100584188  1.0000
  C   C27       1.0  0.8629024171474027  0.0015950074389683411  0.5967145396533421  1.0000
  H   H9        1.0  0.9107871112206226  0.32008563851752503  0.6417927846872453  1.0000
  H   H10       1.0  0.8869207896658702  0.10232841456699737  0.40257186310245885  1.0000
  H   H11       1.0  0.8886514119734417  0.6851412151022821  0.40148840216858694  1.0000
  H   H12       1.0  0.9220533445594984  0.8636369479101201  0.7608100629184134  1.0000
  H   H13       1.0  0.9304615021694715  0.5288167631807622  0.8448511720149435  1.0000
  H   H14       1.0  0.951196626829787  0.06242546745397904  0.20339674250434303  1.0000
  H   H15       1.0  0.9270015969259282  0.08453178157867945  0.9687992567362711  1.0000
  H   H16       1.0  0.7676049758937319  0.775784798378986  0.009046573773862535  1.0000
  H   H17       1.0  0.7894751451027003  0.7564465443971845  0.24524876072323612  1.0000
  H   H18       1.0  0.77874105986767  0.9133355704984508  0.8003003987932639  1.0000
  H   H19       1.0  0.8084267785198663  0.05767607617939131  0.5909032867958333  1.0000
  H   H20       1.0  0.8559149019232735  0.9083400296410488  0.5513165191844723  1.0000
  H   H21       1.0  0.9058583021899077  0.05963009765038785  0.5423900213105957  1.0000
  C   C28       1.0  0.905679994033707  0.37810536542292605  0.20829110335106682  1.0000
  C   C29       1.0  0.9740739394153659  0.443807408860704  0.20363792788872173  1.0000
  C   C30       1.0  0.008765997260010705  0.47698955743512594  0.08415102818860332  1.0000
  C   C31       1.0  0.9741465783858279  0.4435897243600131  0.9683701883206718  1.0000
  C   C32       1.0  0.9057520005477528  0.37788971659666964  0.9710313892246797  1.0000
  C   C33       1.0  0.871901982301941  0.3455143588643703  0.09146946162591574  1.0000
  C   C34       1.0  0.0811207899060844  0.546494531406329  0.080282367882492  1.0000
  C   C35       1.0  0.09296932426204219  0.6489485387979179  0.1603577274352046  1.0000
  C   C36       1.0  0.16110917554805518  0.7142515664431293  0.15651572904280053  1.0000
  C   C37       1.0  0.21815779422619724  0.678131310010853  0.07295802791661221  1.0000
  C   C38       1.0  0.20703701826234933  0.576528381673985  0.9930432832246031  1.0000
  C   C39       1.0  0.13897377407186615  0.5109956613808331  0.9964813161685719  1.0000
  I   I1        1.0  0.32088802709469855  0.7768111954577  0.06746927622430166  1.0000
  H   H22       1.0  0.8795968464348932  0.35313597444428996  0.5375120972415519  1.0000
  H   H23       1.0  0.001054184844468286  0.4677518752974701  0.29327970446645635  1.0000
  H   H24       1.0  0.0001300936760026958  0.4705233260813053  0.8758965847852549  1.0000
  H   H25       1.0  0.819138743275147  0.2948293800853663  0.09429080430270376  1.0000
  H   H26       1.0  0.8797022968658491  0.35281871120548053  0.6445949781656322  1.0000
  H   H27       1.0  0.04920349055765971  0.6796445547271888  0.2246492295319189  1.0000
  H   H28       1.0  0.16944361276791822  0.7931315298140816  0.21828579467946296  1.0000
  H   H29       1.0  0.2511729932000464  0.5480508670882169  0.9284692018932343  1.0000
  H   H30       1.0  0.13195089328891507  0.43151136064260676  0.9349050072572913  1.0000
  Zn  Zn1       1.0  0.8230246955324215  0.38199695058050404  0.5876022932200082  1.0000
  Zn  Zn2       1.0  0.9884000700765967  0.37399785343528436  0.5917193854299283  1.0000
  C   C40       1.0  0.9057378460200385  0.3727564360344986  0.8268586334154815  1.0000
  C   C41       1.0  0.9056887251327531  0.3832399193553393  0.3524632171648898  1.0000
  C   C42       1.0  0.905659192727098  0.6152116379245869  0.5844142998343368  1.0000
  C   C43       1.0  0.9057673223460692  0.14078315973893996  0.594907619051293  1.0000
  O   O3        1.0  0.9684507494002385  0.3819218406539596  0.40241111233790905  1.0000
  O   O4        1.0  0.9684919046871612  0.36800240538841894  0.7800351424154647  1.0000
  O   O5        1.0  0.968427545263293  0.5637880877189447  0.5842596062445291  1.0000
  O   O6        1.0  0.9685150523814477  0.18613617037153268  0.5981865497261765  1.0000
  O   O7        1.0  0.8429096567930707  0.5698586363753704  0.581135127511967  1.0000
  O   O8        1.0  0.8429740158620632  0.37407451450227003  0.7769105939658518  1.0000
  O   O9        1.0  0.8429328604879384  0.3879939049470005  0.3992850024975763  1.0000
  O   O10       1.0  0.8429971634773065  0.19220822534758963  0.5950605372567188  1.0000
