data_image0
_chemical_formula_structural       NC8OC5NC2H8C7ClCClC6H8C12H9Zn2C4O8
_chemical_formula_sum              "N2 C45 O9 H25 Cl2 Zn2"
_cell_length_a       19.09086724204606
_cell_length_b       17.25489619101054
_cell_length_c       14.994061290378351
_cell_angle_alpha    84.7897074843188
_cell_angle_beta     89.99081342472316
_cell_angle_gamma    90.39119030819461

_space_group_name_H-M_alt    "P 1"
_space_group_IT_number       1

loop_
  _space_group_symop_operation_xyz
  'x, y, z'

loop_
  _atom_site_type_symbol
  _atom_site_label
  _atom_site_symmetry_multiplicity
  _atom_site_fract_x
  _atom_site_fract_y
  _atom_site_fract_z
  _atom_site_occupancy
  N   N1        1.0  0.6649560906582845  0.8493964607636745  0.0028392994410419976  1.0000
  C   C1        1.0  0.6112593173618036  0.8238165888743609  0.0267563374643931  1.0000
  C   C2        1.0  0.5444667048988826  0.7919990822446827  0.056505947175640815  1.0000
  C   C3        1.0  0.4870420312400015  0.7963861503960186  0.9982960525495281  1.0000
  C   C4        1.0  0.4221549777279849  0.7654638332450528  0.02711257587339187  1.0000
  C   C5        1.0  0.41378722787207173  0.7302808146183852  0.11489603857213765  1.0000
  C   C6        1.0  0.47199694573397083  0.7252635910016489  0.1725086559423249  1.0000
  C   C7        1.0  0.5368474055521089  0.7562370958756629  0.1435801817514369  1.0000
  C   C8        1.0  0.3454993143968526  0.6962863262331519  0.14593388649760147  1.0000
  O   O1        1.0  0.34512549210901317  0.6368277116533689  0.20150457138036393  1.0000
  C   C9        1.0  0.2776351435774388  0.7296723021092141  0.11399702878156026  1.0000
  C   C10       1.0  0.2699959485575296  0.8103744936552089  0.09347267715863071  1.0000
  C   C11       1.0  0.2054973687189723  0.8412271022630478  0.06455312502341536  1.0000
  C   C12       1.0  0.147735563482871  0.791976803609252  0.05647336700728986  1.0000
  C   C13       1.0  0.08134313953656101  0.8238044433004346  0.02673873504356794  1.0000
  N   N2        1.0  0.027968239670541607  0.8493922507819057  0.0028331810575854552  1.0000
  C   C14       1.0  0.15462532859048492  0.7117323045519659  0.07782053018456009  1.0000
  C   C15       1.0  0.21908637945299914  0.6807752878677992  0.10677328851939122  1.0000
  H   H1        1.0  0.4924844994422147  0.8233895871581597  0.9305209052467784  1.0000
  H   H2        1.0  0.37878429495578486  0.7682910216400555  0.9804402568108801  1.0000
  H   H3        1.0  0.46714411471049067  0.6979596777384601  0.24019653426859067  1.0000
  H   H4        1.0  0.5810140195815399  0.7522576018575443  0.18909774429936368  1.0000
  H   H5        1.0  0.3136316409100764  0.8497075759003803  0.10074160577464297  1.0000
  H   H6        1.0  0.2006163189490514  0.9034988646866495  0.04889053841017385  1.0000
  H   H7        1.0  0.11019087313357952  0.673097168442079  0.07213104203208942  1.0000
  H   H8        1.0  0.22337596667506343  0.6185081998052242  0.12279980590691895  1.0000
  C   C16       1.0  0.8450502500569439  0.6214865810072769  0.006369286112881343  1.0000
  C   C17       1.0  0.8769026695365402  0.5785327824098292  0.07943097543745102  1.0000
  C   C18       1.0  0.8734590449689436  0.4972440332984173  0.08795953376105081  1.0000
  C   C19       1.0  0.8387770955364251  0.45747461303980336  0.023280601601695875  1.0000
  C   C20       1.0  0.8060823458065479  0.5001610398132902  0.9509421612038504  1.0000
  C   C21       1.0  0.8094690252688685  0.5814463166045225  0.9423199168443772  1.0000
  C   C22       1.0  0.8342011312461995  0.3716308469641131  0.03417026355983431  1.0000
  Cl  Cl1       1.0  0.7927819163727037  0.3297850555347533  0.132432060187628  1.0000
  C   C23       1.0  0.8587664625845097  0.3271503538593064  0.9715865267596302  1.0000
  Cl  Cl2       1.0  0.9001857295247487  0.368996092909211  0.873324662855282  1.0000
  C   C24       1.0  0.8541896087145643  0.2413067123944388  0.982475385351181  1.0000
  C   C25       1.0  0.8868844613210207  0.198619917343445  0.054811277826570026  1.0000
  C   C26       1.0  0.8834915711019681  0.1173378933318368  0.06341806254203752  1.0000
  C   C27       1.0  0.8478807508931223  0.0772961552527704  0.9993109977901218  1.0000
  C   C28       1.0  0.8160552745081622  0.12024612424412041  0.9263094543594133  1.0000
  C   C29       1.0  0.8195058285048299  0.2015376762772296  0.9177953161702868  1.0000
  H   H9        1.0  0.9044286701837336  0.6077014418518555  0.13009822955062367  1.0000
  H   H10       1.0  0.8982897724486145  0.46526473222131826  0.14478557239037537  1.0000
  H   H11       1.0  0.7775797916105234  0.47050534461365295  0.9014777559183627  1.0000
  H   H12       1.0  0.7839815191116137  0.6128600355257215  0.8856652116034467  1.0000
  H   H13       1.0  0.9153884469372048  0.22827001072323957  0.10427893612992653  1.0000
  H   H14       1.0  0.9089733716390703  0.0858908460283884  0.12006582209370992  1.0000
  H   H15       1.0  0.7885252952758272  0.09111130104065163  0.8756290484835085  1.0000
  H   H16       1.0  0.7946759206422163  0.2335225204921841  0.8609723222204182  1.0000
  C   C30       1.0  0.8464951761985046  0.8494012360470922  0.7408733043687075  1.0000
  C   C31       1.0  0.8843431026519688  0.7931512222337166  0.6991487064008601  1.0000
  C   C32       1.0  0.884306523768408  0.7931208805454957  0.6059310577662016  1.0000
  C   C33       1.0  0.8464825973692122  0.8493605018308799  0.5523803151021962  1.0000
  C   C34       1.0  0.8086740199618371  0.9056063411783026  0.5942048550921673  1.0000
  C   C35       1.0  0.8086625853416443  0.9055978587056001  0.6874301320658847  1.0000
  C   C36       1.0  0.8464658925728222  0.8493549374699972  0.4533070353744089  1.0000
  C   C37       1.0  0.850873648389919  0.9196488944131924  0.39826546762658055  1.0000
  C   C38       1.0  0.8508874918890885  0.9196488466885482  0.3050410160817989  1.0000
  C   C39       1.0  0.8464358178302022  0.8493814932553574  0.2648070356827638  1.0000
  C   C40       1.0  0.8419970539990729  0.7790600175840562  0.3197520430548604  1.0000
  C   C41       1.0  0.8420422249534205  0.7790569170359146  0.4129731979796363  1.0000
  H   H17       1.0  0.9141861930921198  0.7491968351702658  0.7384994912495322  1.0000
  H   H18       1.0  0.914686607853116  0.74965517963  0.5756656681325287  1.0000
  H   H19       1.0  0.7782828838378444  0.9490656876194234  0.554872895970149  1.0000
  H   H20       1.0  0.7788260382548878  0.9495639175972583  0.7175776329364911  1.0000
  H   H21       1.0  0.8552667529275797  0.974683171383228  0.4273097216251097  1.0000
  H   H22       1.0  0.8545698759710542  0.9747687542450871  0.2645440522538333  1.0000
  H   H23       1.0  0.8508408626091429  0.9204959584758228  0.04458230034958998  1.0000
  H   H24       1.0  0.8383035729561933  0.7239458572749482  0.2907489382432815  1.0000
  H   H25       1.0  0.8376614507737488  0.7240239735610174  0.45352673490633866  1.0000
  Zn  Zn1       1.0  0.7697135423711842  0.8493931714475907  0.002842723160114802  1.0000
  Zn  Zn2       1.0  0.923210736272981  0.8493892014993865  0.0028371822395598678  1.0000
  C   C42       1.0  0.8464262694427815  0.8462934251407731  0.16582019395014969  1.0000
  C   C43       1.0  0.8464996914569741  0.8524899270059727  0.8398597837835002  1.0000
  C   C44       1.0  0.8473425125763194  0.9911385850275181  0.9970902983785215  1.0000
  C   C45       1.0  0.8455833901498914  0.7076438346749682  0.008589741356856416  1.0000
  O   O2        1.0  0.9047525709217463  0.8535216274601629  0.8730785002079032  1.0000
  O   O3        1.0  0.9046742048595134  0.8452581261108587  0.1325970243622844  1.0000
  O   O4        1.0  0.9054132974156853  0.9622224245218525  0.9963464274283822  1.0000
  O   O5        1.0  0.9040134260294349  0.73655733460492  0.009329030169905377  1.0000
  O   O6        1.0  0.7889108002336771  0.9622250383442571  0.9963508752269539  1.0000
  O   O7        1.0  0.7881717134699966  0.8452616723797223  0.1326014101563141  1.0000
  O   O8        1.0  0.7882500795323966  0.8535251467242385  0.8730818138759977  1.0000
  O   O9        1.0  0.7875109345951717  0.736560848315444  0.009332410807085691  1.0000
