data_image0
_chemical_formula_structural       NC9NC3OH6C7OC3NC3H11C7OC3FC3H8Zn2C4O8
_chemical_formula_sum              "N3 C42 O11 H25 F1 Zn2"
_cell_length_a       15.78231758774541
_cell_length_b       10.298746005989749
_cell_length_c       10.29938172300155
_cell_angle_alpha    85.57926667056456
_cell_angle_beta     90.06753164669175
_cell_angle_gamma    89.64076015714046

_space_group_name_H-M_alt    "P 1"
_space_group_IT_number       1

loop_
  _space_group_symop_operation_xyz
  'x, y, z'

loop_
  _atom_site_type_symbol
  _atom_site_label
  _atom_site_symmetry_multiplicity
  _atom_site_fract_x
  _atom_site_fract_y
  _atom_site_fract_z
  _atom_site_occupancy
  N   N1        1.0  0.7982757514702533  0.41301088570422806  0.5700088794091387  1.0000
  C   C1        1.0  0.7497314656547504  0.33094675076451363  0.5940834482893198  1.0000
  C   C2        1.0  0.6894619349754018  0.22908521190693223  0.6239661904848262  1.0000
  C   C3        1.0  0.7091054406047436  0.1011306831684895  0.6614243209448463  1.0000
  C   C4        1.0  0.6323655991290086  0.039118929557157685  0.6796525480252134  1.0000
  C   C5        1.0  0.5705990614044186  0.13381993611542908  0.6519705244669145  1.0000
  C   C6        1.0  0.47750545344515966  0.11631119188807701  0.6571802732682552  1.0000
  C   C7        1.0  0.42377638333886025  0.22366660871139876  0.6256341989146421  1.0000
  C   C8        1.0  0.33556774256947797  0.2093098601197097  0.6299132286906293  1.0000
  C   C9        1.0  0.2811426430475477  0.3197888362831653  0.5974410585549836  1.0000
  N   N2        1.0  0.23739775590631718  0.4085996790483511  0.5713363357113141  1.0000
  C   C10       1.0  0.3004068604460193  0.0874379117701023  0.6657873166063033  1.0000
  C   C11       1.0  0.35320503041700013  0.9803044504172909  0.6972725274099056  1.0000
  C   C12       1.0  0.4412279499703578  0.994266795756421  0.693109777557728  1.0000
  O   O1        1.0  0.607074230114416  0.24605291274456345  0.6190662697308202  1.0000
  H   H1        1.0  0.7715594216706617  0.057979812190193984  0.6740056969212407  1.0000
  H   H2        1.0  0.6236182449046712  0.9371553114780748  0.7095171740084232  1.0000
  H   H3        1.0  0.45039602270089896  0.3185045929368446  0.5977130759498672  1.0000
  H   H4        1.0  0.2322887448003286  0.07527849121532662  0.6694093098916154  1.0000
  H   H5        1.0  0.32585517215568655  0.8861148279838321  0.7250031906808558  1.0000
  H   H6        1.0  0.48030170898861946  0.9094095518712232  0.7180565316638094  1.0000
  C   C13       1.0  0.017800309719237628  0.029403570382642956  0.5706553196936124  1.0000
  C   C14       1.0  0.057460198074189756  0.03748073436904354  0.448272336196291  1.0000
  C   C15       1.0  0.07662328915995958  0.924450345124726  0.3856978945522076  1.0000
  C   C16       1.0  0.057460842551203956  0.8022441151544221  0.4482232016039807  1.0000
  C   C17       1.0  0.017881266905608102  0.7921969608124961  0.5707011185134943  1.0000
  C   C18       1.0  0.9980982184191793  0.906341709668126  0.6309849301178492  1.0000
  C   C19       1.0  0.11922385102564576  0.9327811566819253  0.25701260956245475  1.0000
  O   O2        1.0  0.17096315465418666  0.8442771346681871  0.23195704585280175  1.0000
  C   C20       1.0  0.10313123200888663  0.041455410894519755  0.156759404732153  1.0000
  C   C21       1.0  0.022901615717511693  0.10165041772670257  0.14440956515483694  1.0000
  C   C22       1.0  0.008071943461197766  0.2034464314307358  0.0484590276760144  1.0000
  N   N3        1.0  0.9264857918242596  0.26449748594468137  0.03700845327377266  1.0000
  C   C23       1.0  0.07352454659018744  0.24465414364829965  0.9635236963506935  1.0000
  C   C24       1.0  0.15298108315041936  0.18430167415296927  0.9740151488594853  1.0000
  C   C25       1.0  0.1677449052949178  0.0829307199181093  0.06966128286700335  1.0000
  H   H7        1.0  0.9440375075621894  0.22142529680015818  0.8027652483307799  1.0000
  H   H8        1.0  0.07431878208853937  0.13181661275585688  0.40210203729257366  1.0000
  H   H9        1.0  0.07275121045067373  0.7148870006261498  0.40057209705593616  1.0000
  H   H10       1.0  0.9675317814207102  0.8993635563858187  0.7253219554296659  1.0000
  H   H11       1.0  0.9434144164733405  0.5658916608198862  0.8023203988093192  1.0000
  H   H12       1.0  0.9715775366017299  0.06877790419627772  0.20821628752447152  1.0000
  H   H13       1.0  0.8772431561894531  0.23455385576671262  0.09981001791090649  1.0000
  H   H14       1.0  0.9147445273299206  0.34021296326935735  0.9657354028892295  1.0000
  H   H15       1.0  0.06286032277255749  0.3230941810030752  0.8890051967629303  1.0000
  H   H16       1.0  0.20326743098580768  0.21614842158644865  0.9078730070065893  1.0000
  H   H17       1.0  0.2298868364236344  0.03766617642790982  0.07637661111588478  1.0000
  C   C26       1.0  0.017912114234857262  0.41069839005368003  0.18931076865102714  1.0000
  C   C27       1.0  0.044712140080452656  0.2799636379425774  0.19824523203749478  1.0000
  C   C28       1.0  0.05914989973921436  0.21447166658871294  0.08554556712655548  1.0000
  C   C29       1.0  0.04463113054944842  0.2802576107025496  0.9629789546447886  1.0000
  C   C30       1.0  0.017769445023667167  0.41090208607630196  0.952045705011197  1.0000
  C   C31       1.0  0.004778957380551451  0.47546831030794  0.06580237983918003  1.0000
  C   C32       1.0  0.08659124032841897  0.07601583824744318  0.094865560638143  1.0000
  O   O3        1.0  0.0604861156170535  0.0030277583999778236  0.010601013112893522  1.0000
  C   C33       1.0  0.14365332053575974  0.0203648446426239  0.19967998087754668  1.0000
  C   C34       1.0  0.13681350078207055  0.8884615090525025  0.24492456919324598  1.0000
  C   C35       1.0  0.19098931283396292  0.8347056446349307  0.34264163040411755  1.0000
  F   F1        1.0  0.18347261571509887  0.7077031982815969  0.386280115797639  1.0000
  C   C36       1.0  0.2528811036538825  0.9117140792848968  0.3953012874458142  1.0000
  C   C37       1.0  0.2609410034773263  0.04239960836091816  0.3499952569233167  1.0000
  C   C38       1.0  0.2069332573167666  0.09656558974371432  0.2523497042275886  1.0000
  H   H18       1.0  0.9660924418517534  0.6568099555545222  0.379814178304694  1.0000
  H   H19       1.0  0.05348508717600328  0.228480679606327  0.2930742718601482  1.0000
  H   H20       1.0  0.05512789894412662  0.22959839328325324  0.8759818594080726  1.0000
  H   H21       1.0  0.9841177367746269  0.5762547651682217  0.058110517741723815  1.0000
  H   H22       1.0  0.08907460919724564  0.8274195847720581  0.20540363568346454  1.0000
  H   H23       1.0  0.2948463648125068  0.87008059390232  0.47084236773919835  1.0000
  H   H24       1.0  0.30934457283714734  0.1016869698047409  0.3901570192799144  1.0000
  H   H25       1.0  0.21527458731016058  0.19744927294825004  0.21712022759523972  1.0000
  Zn  Zn1       1.0  0.9249968709784074  0.41173443947738275  0.5703994478528347  1.0000
  Zn  Zn2       1.0  0.11067660479495495  0.40986552772987483  0.5709563829095197  1.0000
  C   C39       1.0  0.017793995632360275  0.4056895069570743  0.8078721359225813  1.0000
  C   C40       1.0  0.01788150790803565  0.41591207863612284  0.33348382848587343  1.0000
  C   C41       1.0  0.017862580475689782  0.6480114175918279  0.5655173079608928  1.0000
  C   C42       1.0  0.017812859526604927  0.173588608220973  0.5758387254021649  1.0000
  O   O4        1.0  0.08833572684901614  0.41694693165562136  0.38208097801482355  1.0000
  O   O5        1.0  0.08826639828746363  0.4032352132583694  0.7596973133116018  1.0000
  O   O6        1.0  0.08832083126824325  0.598913230596378  0.5639940722638372  1.0000
  O   O7        1.0  0.08828123052751685  0.2212689242203565  0.5777841214988062  1.0000
  O   O8        1.0  0.9473921818824658  0.6003310436260811  0.5635717090666623  1.0000
  O   O9        1.0  0.9473377490764081  0.40465458670764803  0.7592748809629382  1.0000
  O   O10       1.0  0.9474070779815091  0.4183662594274236  0.3816569842688906  1.0000
  O   O11       1.0  0.94735258163735  0.22268824272859478  0.57736022511977  1.0000
