data_image0
_chemical_formula_structural       NC10NC2SH6C10ClC2H9C6N2CH8Zn2C4O8
_chemical_formula_sum              "N4 C35 S1 H23 Cl1 Zn2 O8"
_cell_length_a       18.726821288119407
_cell_length_b       10.299769246903262
_cell_length_c       10.299970628315746
_cell_angle_alpha    85.56280496945749
_cell_angle_beta     89.99320129235963
_cell_angle_gamma    90.73444235296577

_space_group_name_H-M_alt    "P 1"
_space_group_IT_number       1

loop_
  _space_group_symop_operation_xyz
  'x, y, z'

loop_
  _atom_site_type_symbol
  _atom_site_label
  _atom_site_symmetry_multiplicity
  _atom_site_fract_x
  _atom_site_fract_y
  _atom_site_fract_z
  _atom_site_occupancy
  N   N1        1.0  0.6727392040246476  0.43668166383960666  0.5663332618846688  1.0000
  C   C1        1.0  0.6134808168024025  0.40332852832208393  0.569153115333006  1.0000
  C   C2        1.0  0.5399412147970682  0.36194188519225606  0.5726518115176905  1.0000
  C   C3        1.0  0.5156018836339545  0.23396633096906622  0.5823882335935955  1.0000
  C   C4        1.0  0.440975892964354  0.22292708752143223  0.5832686689920982  1.0000
  C   C5        1.0  0.40636571558478857  0.34277613136159757  0.5742584671721684  1.0000
  C   C6        1.0  0.3280131302987033  0.3640116759414676  0.5725260608685951  1.0000
  C   C7        1.0  0.2796019848855933  0.2606615210582255  0.6045977964845326  1.0000
  C   C8        1.0  0.2059864461470718  0.2818018160731297  0.6027263235160081  1.0000
  C   C9        1.0  0.1795806157233559  0.4062641558015132  0.5689974844580108  1.0000
  C   C10       1.0  0.10377779404092581  0.42782917696208694  0.5671328914428027  1.0000
  N   N2        1.0  0.0428388843382496  0.44516565799503494  0.5656337104085019  1.0000
  C   C11       1.0  0.22708667763476095  0.5097358161574395  0.5372841887061781  1.0000
  C   C12       1.0  0.300720058537868  0.4889244593469254  0.5391218025000237  1.0000
  S   S1        1.0  0.46968273157328855  0.4615267146544921  0.5649387040213865  1.0000
  H   H1        1.0  0.5505129863756503  0.15077620556265667  0.5882954164540903  1.0000
  H   H2        1.0  0.4138782561198936  0.12939305676325083  0.5889968089471392  1.0000
  H   H3        1.0  0.298098579558369  0.16352249273760425  0.632464376129654  1.0000
  H   H4        1.0  0.1696688323603957  0.2010228585155269  0.6279007761041285  1.0000
  H   H5        1.0  0.2072352490879932  0.606576359683655  0.5110189000738796  1.0000
  H   H6        1.0  0.3360822338494758  0.5708340970120392  0.5135613294260856  1.0000
  C   C13       1.0  0.8577253150682276  0.05955704987386616  0.5659783732702177  1.0000
  C   C14       1.0  0.8643244452152548  0.06925381773551596  0.42976334900160174  1.0000
  C   C15       1.0  0.8677365348210847  0.9570293863794525  0.36075261351302057  1.0000
  C   C16       1.0  0.8644600056775628  0.8339687681164593  0.42978503523271927  1.0000
  C   C17       1.0  0.8578596238763779  0.822280365540143  0.5659997870941376  1.0000
  C   C18       1.0  0.8545294285826286  0.9356323323683986  0.6333336582229947  1.0000
  C   C19       1.0  0.8747190995030094  0.9683407849668894  0.21664858903716253  1.0000
  C   C20       1.0  0.9210225124029022  0.8864592022496697  0.15407582483338422  1.0000
  C   C21       1.0  0.9275311271198419  0.8973001574098559  0.018431762564260268  1.0000
  C   C22       1.0  0.8879440150495561  0.9897643678384112  0.9437061420417033  1.0000
  Cl  Cl1       1.0  0.8961886891307876  0.003120452219792751  0.773538484437801  1.0000
  C   C23       1.0  0.8417766958114341  0.07156920301383772  0.00478779695478226  1.0000
  C   C24       1.0  0.8351414229346943  0.061117940204638004  0.14041180860567715  1.0000
  H   H7        1.0  0.8551834206161277  0.3833151878623049  0.6178797679449719  1.0000
  H   H8        1.0  0.8678101225683721  0.16433498339674776  0.37717036293051487  1.0000
  H   H9        1.0  0.8660852846898558  0.7471677793975455  0.3768958960386948  1.0000
  H   H10       1.0  0.8494382605067808  0.9273836346571636  0.7384172094033172  1.0000
  H   H11       1.0  0.8553783185051559  0.4903732855513049  0.6179101262327054  1.0000
  H   H12       1.0  0.9528652760768477  0.8152523897949128  0.21011806671428657  1.0000
  H   H13       1.0  0.9635032282298894  0.8339726666785666  0.971578002410975  1.0000
  H   H14       1.0  0.8108608368858797  0.14308715959848484  0.9472914435620607  1.0000
  H   H15       1.0  0.798396556833447  0.12438354033106004  0.18554187600747535  1.0000
  C   C25       1.0  0.8578034198064519  0.44091579052153407  0.18463566398840348  1.0000
  C   C26       1.0  0.7836867402636881  0.4605752803539892  0.18208552454945925  1.0000
  C   C27       1.0  0.7464463856238193  0.47045346132416976  0.06413577154547333  1.0000
  C   C28       1.0  0.7836429603867856  0.46058701312208744  0.9468688933362598  1.0000
  C   C29       1.0  0.8577814968081862  0.44092160304812483  0.9473425123598014  1.0000
  C   C30       1.0  0.8944009788966379  0.43120828611235085  0.06672762214120098  1.0000
  N   N3        1.0  0.6708712571937148  0.4904999234843887  0.06629966269351217  1.0000
  N   N4        1.0  0.6335726896345296  0.5003932963041509  0.9629114931788515  1.0000
  C   C31       1.0  0.5570922055873951  0.5206799909188675  0.9694834728851472  1.0000
  H   H16       1.0  0.9977568858728119  0.4037940714360325  0.3967572124833784  1.0000
  H   H17       1.0  0.7544429461124177  0.4683321895417949  0.2718634555232706  1.0000
  H   H18       1.0  0.7548756852583467  0.4682176035554062  0.8554729785654391  1.0000
  H   H19       1.0  0.9515213451489245  0.4160570808447485  0.06788282861984674  1.0000
  H   H20       1.0  0.9977947633078593  0.4037827681076743  0.7410143440222979  1.0000
  H   H21       1.0  0.5312280730989737  0.4380718583836407  0.02811862151926858  1.0000
  H   H22       1.0  0.5346135188858846  0.5266426431887329  0.869589594433568  1.0000
  H   H23       1.0  0.5463849282275887  0.6129885696087679  0.014583374564357982  1.0000
  Zn  Zn1       1.0  0.7795419774174934  0.4391264740421472  0.5661388878450209  1.0000
  Zn  Zn2       1.0  0.9360360991261465  0.4427101844211602  0.5658387290132136  1.0000
  C   C32       1.0  0.8577831337982078  0.43574685722756734  0.8031744637001549  1.0000
  C   C33       1.0  0.8577966519412028  0.446091478980626  0.32880327738772475  1.0000
  C   C34       1.0  0.8578306896376575  0.6781093189730965  0.5608208176705538  1.0000
  C   C35       1.0  0.8577490424245537  0.2037274557193993  0.57115699271168  1.0000
  O   O1        1.0  0.9171830831987661  0.4491828210122277  0.3770733365601996  1.0000
  O   O2        1.0  0.9171721197282818  0.43537448873263823  0.7546762170611204  1.0000
  O   O3        1.0  0.9172097210431138  0.6310852233607498  0.5589739347735132  1.0000
  O   O4        1.0  0.9171454284875252  0.2534720944506579  0.5727755215797765  1.0000
  O   O5        1.0  0.7984325946523517  0.628364562791119  0.5592020953740573  1.0000
  O   O6        1.0  0.798394993610956  0.4326553884571744  0.7549043084629091  1.0000
  O   O7        1.0  0.7984059571658522  0.4464636754701603  0.37729986662330955  1.0000
  O   O8        1.0  0.7983683024472569  0.25075293962051837  0.573002149006516  1.0000
