data_image0
_chemical_formula_structural       NC5NC3BrH3C6NH7C7NH4Zn2C4O8
_chemical_formula_sum              "N4 C25 Br1 H14 Zn2 O8"
_cell_length_a       13.839083392302014
_cell_length_b       9.274771166103582
_cell_length_c       9.275157849593905
_cell_angle_alpha    86.00874675488272
_cell_angle_beta     89.74163777479679
_cell_angle_gamma    90.6230172981901

_space_group_name_H-M_alt    "P 1"
_space_group_IT_number       1

loop_
  _space_group_symop_operation_xyz
  'x, y, z'

loop_
  _atom_site_type_symbol
  _atom_site_label
  _atom_site_symmetry_multiplicity
  _atom_site_fract_x
  _atom_site_fract_y
  _atom_site_fract_z
  _atom_site_occupancy
  N   N1        1.0  0.9256478199787836  0.5639448406428673  0.4074875645064111  1.0000
  C   C1        1.0  0.853192891762519  0.5003050655649345  0.4100677877992984  1.0000
  C   C2        1.0  0.762920673090629  0.4211151804477071  0.41327832001594267  1.0000
  C   C3        1.0  0.675905774938571  0.4973130457274555  0.410189285100095  1.0000
  C   C4        1.0  0.5873279711630373  0.42258786142594973  0.4132185580473624  1.0000
  C   C5        1.0  0.4981273647357408  0.5011370553254952  0.41003404021374745  1.0000
  N   N2        1.0  0.4264216814866498  0.5642844473507156  0.40747374052535695  1.0000
  C   C6        1.0  0.5856970184346734  0.271353318162888  0.41934954175771844  1.0000
  C   C7        1.0  0.672266009080133  0.1950341877155335  0.4224434013769811  1.0000
  C   C8        1.0  0.761034764960915  0.26904526777389903  0.41944309808758895  1.0000
  Br  Br1       1.0  0.8776551768052361  0.15895797476242812  0.4239060786489266  1.0000
  H   H1        1.0  0.6771145353975819  0.6145070153075931  0.4054380922415053  1.0000
  H   H2        1.0  0.5175842214496144  0.21250235254679886  0.4217350670118629  1.0000
  H   H3        1.0  0.6702958239927052  0.07808941397199698  0.4271841145256825  1.0000
  C   C9        1.0  0.17307044717410244  0.1405236368386149  0.408266245530881  1.0000
  C   C10       1.0  0.15121682176020523  0.22257592384175795  0.2793946026105776  1.0000
  C   C11       1.0  0.1383874551029045  0.15626831548002107  0.14970507251166243  1.0000
  C   C12       1.0  0.1474651545112513  0.006521932939840491  0.14794782791759453  1.0000
  C   C13       1.0  0.16753719931349179  0.9231319531586761  0.2750491920700473  1.0000
  C   C14       1.0  0.17900819785276934  0.9876946865772127  0.40670759951241764  1.0000
  N   N3        1.0  0.11713170519888315  0.2414068594896237  0.019417032470450565  1.0000
  H   H4        1.0  0.28088334388681613  0.2232957496669814  0.7236533063436985  1.0000
  H   H5        1.0  0.14634633325674798  0.3391599957018898  0.27884116747531995  1.0000
  H   H6        1.0  0.13805158960125175  0.9540669449852615  0.048164806315025274  1.0000
  H   H7        1.0  0.17180784793949513  0.8069310689356897  0.27092181657375436  1.0000
  H   H8        1.0  0.24770171719459122  0.6927423397646915  0.6212825975460099  1.0000
  H   H9        1.0  0.11047425942912102  0.353475795238662  0.019370409072017473  1.0000
  H   H10       1.0  0.10780208710921113  0.19299197015220673  0.9220039802021337  1.0000
  C   C15       1.0  0.17729290846687995  0.5600326885385392  0.9842966035008224  1.0000
  C   C16       1.0  0.26090829376037705  0.6071133774673614  0.053903823205768024  1.0000
  C   C17       1.0  0.33964640826398584  0.6655333183082024  0.9739161132870153  1.0000
  C   C18       1.0  0.33568878285203674  0.6778011013106195  0.8232347015228902  1.0000
  C   C19       1.0  0.2540518406419172  0.629553695443269  0.7522880343055007  1.0000
  C   C20       1.0  0.17478574857067342  0.5681855595484577  0.8306772413623493  1.0000
  C   C21       1.0  0.4242229428598727  0.7146234731736862  0.04682720308476785  1.0000
  N   N4        1.0  0.4922008159577691  0.7540787217025477  0.10543542873147205  1.0000
  H   H11       1.0  0.9418444203414286  0.5112376845903701  0.09223017215082696  1.0000
  H   H12       1.0  0.3961790843949702  0.7234692737184099  0.7603262993824678  1.0000
  H   H13       1.0  0.25389122925156915  0.6371372425567101  0.6352096475010724  1.0000
  H   H14       1.0  0.017229780642523014  0.5292768167425888  0.5533464628212719  1.0000
  Zn  Zn1       1.0  0.07016029027354387  0.564039056593675  0.4074919108300772  1.0000
  Zn  Zn2       1.0  0.2819090854328645  0.5641785222714497  0.40748124261774055  1.0000
  C   C22       1.0  0.17521720049284717  0.5608980538141388  0.6707037254162389  1.0000
  C   C23       1.0  0.17685449984126533  0.5673213479709558  0.14426956601105267  1.0000
  C   C24       1.0  0.17789786241126926  0.8275059731680898  0.4012595046719012  1.0000
  C   C25       1.0  0.17417375329343468  0.3007116962626275  0.4137138667790199  1.0000
  O   O1        1.0  0.2570648860193847  0.5698141221498112  0.19795391664781814  1.0000
  O   O2        1.0  0.255719243908902  0.5585100386720661  0.6170108650128179  1.0000
  O   O3        1.0  0.2578828246124023  0.7737993189884607  0.3994327476942507  1.0000
  O   O4        1.0  0.2549012334527663  0.35452485106374976  0.41553192589814514  1.0000
  O   O5        1.0  0.09716806999420415  0.7736927277552799  0.39944122754572997  1.0000
  O   O6        1.0  0.09500450166067352  0.5584051797471665  0.6170192648367252  1.0000
  O   O7        1.0  0.096350148615572  0.5697091962687888  0.19796058393838023  1.0000
  O   O8        1.0  0.09418649565263326  0.3544199159062984  0.4155387012530052  1.0000
