data_image0
_chemical_formula_structural       NC5OC5NC4H8C6ClH5C6OCH7Zn2C4O8
_chemical_formula_sum              "N2 C31 O10 H20 Cl1 Zn2"
_cell_length_a       19.189071930511275
_cell_length_b       10.30297070629231
_cell_length_c       9.273891588657152
_cell_angle_alpha    86.0762958320409
_cell_angle_beta     89.6582401659116
_cell_angle_gamma    89.98947815314023

_space_group_name_H-M_alt    "P 1"
_space_group_IT_number       1

loop_
  _space_group_symop_operation_xyz
  'x, y, z'

loop_
  _atom_site_type_symbol
  _atom_site_label
  _atom_site_symmetry_multiplicity
  _atom_site_fract_x
  _atom_site_fract_y
  _atom_site_fract_z
  _atom_site_occupancy
  N   N1        1.0  0.6604844046468986  0.40775999386886275  0.4095876990788603  1.0000
  C   C1        1.0  0.606081516822599  0.4536985057818716  0.3892866392586914  1.0000
  C   C2        1.0  0.5384113386243029  0.5108383567537724  0.36403517155611875  1.0000
  C   C3        1.0  0.5290177148961791  0.6068170249879332  0.2514739163943882  1.0000
  C   C4        1.0  0.4632830670852151  0.6623952344793858  0.22708475988097868  1.0000
  C   C5        1.0  0.40628732802983614  0.6218790524660425  0.313752637027259  1.0000
  O   O1        1.0  0.3413884244886355  0.6810672734744629  0.28684972112774054  1.0000
  C   C6        1.0  0.2763479838366265  0.6216844727416753  0.31312642221729226  1.0000
  C   C7        1.0  0.2194936204669392  0.6995217300041923  0.3467124782217775  1.0000
  C   C8        1.0  0.1536266179905874  0.6442365716068856  0.3720457878995569  1.0000
  C   C9        1.0  0.1439584601903413  0.5103821253395078  0.36256551521314573  1.0000
  C   C10       1.0  0.0761519628772018  0.45344713374674755  0.3884767958193647  1.0000
  N   N2        1.0  0.021639531240853202  0.40767338274310094  0.4093087996149618  1.0000
  C   C11       1.0  0.2003453308890783  0.4322194016469827  0.3268513494815881  1.0000
  C   C12       1.0  0.2662033421073563  0.48754438174434633  0.30156647113470353  1.0000
  C   C13       1.0  0.4161582576993302  0.526817324403215  0.4281101417399349  1.0000
  C   C14       1.0  0.4818838086466643  0.4712355651278741  0.4525674216037108  1.0000
  H   H1        1.0  0.5724510480913921  0.6387609678652528  0.18278135098735399  1.0000
  H   H2        1.0  0.45648181483676564  0.7367020636814352  0.13999251684133385  1.0000
  H   H3        1.0  0.22650734460653474  0.8031231544299708  0.3540124705642309  1.0000
  H   H4        1.0  0.1103048617000829  0.7058021413954649  0.39879927531425063  1.0000
  H   H5        1.0  0.1933298010069092  0.3287568849242666  0.31780343221093443  1.0000
  H   H6        1.0  0.3088262121022575  0.42615666973597155  0.271024095479498  1.0000
  H   H7        1.0  0.37342649806946926  0.4970721562916128  0.4995255688229459  1.0000
  H   H8        1.0  0.4886883239133598  0.39798608308104755  0.5408711100805288  1.0000
  C   C15       1.0  0.841065285011045  0.02646930682186932  0.409454455515154  1.0000
  C   C16       1.0  0.9129494860146374  0.02353457918594115  0.43716184036763184  1.0000
  C   C17       1.0  0.9486165082047786  0.9051216009334726  0.4509094044544948  1.0000
  C   C18       1.0  0.9129494856411257  0.7884266099653505  0.43716177257902755  1.0000
  C   C19       1.0  0.8410652922256185  0.7889542493032217  0.4094545380214414  1.0000
  C   C20       1.0  0.8054735948308661  0.9085689769316165  0.39573587494052165  1.0000
  Cl  Cl1       1.0  0.03841700236944012  0.902958943033816  0.4855224301954975  1.0000
  H   H9        1.0  0.8139877676762316  0.3548778790897802  0.39901676193642843  1.0000
  H   H10       1.0  0.9415395800789685  0.11289263018629159  0.4481816169448048  1.0000
  H   H11       1.0  0.9415395527993834  0.6976914365233257  0.44818151340712925  1.0000
  H   H12       1.0  0.7500343176622556  0.9099040004444607  0.3743670624748239  1.0000
  H   H13       1.0  0.8139877635437632  0.46184991462566116  0.3990170340771518  1.0000
  C   C21       1.0  0.8422069338011404  0.4042730984970253  0.9861782570413844  1.0000
  C   C22       1.0  0.8992767473396993  0.45909548808378764  0.05470788661506809  1.0000
  C   C23       1.0  0.9523936722597787  0.5236133058512378  0.9748571232837581  1.0000
  C   C24       1.0  0.9486307237968964  0.5336340039435918  0.8234194168571074  1.0000
  C   C25       1.0  0.893024986452483  0.4780251598419176  0.7535464587120889  1.0000
  C   C26       1.0  0.8399236427572336  0.4111503736207536  0.8327306612961589  1.0000
  O   O2        1.0  0.007560337072223037  0.5768376808526932  0.05002113026248313  1.0000
  C   C27       1.0  0.06494664011520768  0.645149500608508  0.9829004446039047  1.0000
  H   H14       1.0  0.6764485094187115  0.324573696646131  0.09732350185576322  1.0000
  H   H15       1.0  0.9887746547895016  0.583200055203527  0.7584662813504579  1.0000
  H   H16       1.0  0.8924626873007446  0.4847164132275803  0.6364657170616508  1.0000
  H   H17       1.0  0.7293847708521715  0.35234524455107596  0.5573733757367307  1.0000
  H   H18       1.0  0.04624028292621407  0.7330092305313283  0.918519316027766  1.0000
  H   H19       1.0  0.09400362425186007  0.5807094344764416  0.9124653348079974  1.0000
  H   H20       1.0  0.10061928829406241  0.6761730360736995  0.06771644220363693  1.0000
  Zn  Zn1       1.0  0.7647059591477995  0.4077316039031933  0.40951553225521287  1.0000
  Zn  Zn2       1.0  0.9174179623321693  0.4076912875692711  0.4093927516279843  1.0000
  C   C28       1.0  0.8403536904595275  0.404678429532618  0.6727141494268525  1.0000
  C   C29       1.0  0.8417718982492411  0.41074610074656764  0.14619427458894352  1.0000
  C   C30       1.0  0.841077207974345  0.6447816732651674  0.40371062967365967  1.0000
  C   C31       1.0  0.8410483284171778  0.170641297846476  0.41519787123099205  1.0000
  O   O3        1.0  0.8995793056869351  0.41289753565771736  0.19985051723389424  1.0000
  O   O4        1.0  0.8984511610426358  0.40249541267560235  0.618964304200076  1.0000
  O   O5        1.0  0.8990346253039004  0.59638183089172  0.40174205938302154  1.0000
  O   O6        1.0  0.8989957896069019  0.2190111258646286  0.4170726540180161  1.0000
  O   O7        1.0  0.7831280797599757  0.5964117656229457  0.40183562989949895  1.0000
  O   O8        1.0  0.7825446157028648  0.4025269065894799  0.6190577978620151  1.0000
  O   O9        1.0  0.7836727650676051  0.41292897025146375  0.19994227791823738  1.0000
  O   O10       1.0  0.7830892486932486  0.21904255205045595  0.417164522769609  1.0000
