data_image0
_chemical_formula_structural       NC5NC3BrH3C6NCH9C6BrH4Zn2C4O8
_chemical_formula_sum              "N3 C25 Br2 H16 Zn2 O8"
_cell_length_a       13.839083392302014
_cell_length_b       9.273386996610926
_cell_length_c       9.27656775626242
_cell_angle_alpha    86.02760264675325
_cell_angle_beta     90.18696188566506
_cell_angle_gamma    89.42455387291925

_space_group_name_H-M_alt    "P 1"
_space_group_IT_number       1

loop_
  _space_group_symop_operation_xyz
  'x, y, z'

loop_
  _atom_site_type_symbol
  _atom_site_label
  _atom_site_symmetry_multiplicity
  _atom_site_fract_x
  _atom_site_fract_y
  _atom_site_fract_z
  _atom_site_occupancy
  N   N1        1.0  0.8954312791880867  0.5638832508470113  0.40804155474649373  1.0000
  C   C1        1.0  0.8238818647821597  0.500235761557786  0.4106097022772748  1.0000
  C   C2        1.0  0.7347364175711527  0.42103627726843684  0.41380520809691945  1.0000
  C   C3        1.0  0.6466373216109415  0.49724337906809635  0.41073063180523883  1.0000
  C   C4        1.0  0.5591227609712603  0.4225091367516307  0.4137457255811785  1.0000
  C   C5        1.0  0.46880449951010306  0.501067852167  0.4105761125658438  1.0000
  N   N2        1.0  0.39620030823449404  0.5642228987118876  0.4080277952156608  1.0000
  C   C6        1.0  0.5596436815921262  0.2712562612030769  0.4198480123817143  1.0000
  C   C7        1.0  0.6472985950176858  0.19492787952133872  0.42292739038198435  1.0000
  C   C8        1.0  0.7350142686540915  0.2689479310359886  0.41994113075851236  1.0000
  Br  Br1       1.0  0.8532010817764195  0.15884729352374685  0.4243832221280665  1.0000
  H   H1        1.0  0.6461785613337488  0.6144515545849694  0.40600167665622355  1.0000
  H   H2        1.0  0.49236825688250774  0.21239816177132195  0.4222223706497623  1.0000
  H   H3        1.0  0.6469923829641108  0.07796892998598981  0.42764591316976713  1.0000
  C   C9        1.0  0.1487933047539347  0.14040802932669383  0.4087426477554741  1.0000
  C   C10       1.0  0.16548472786674195  0.22261842640773352  0.27846252535850247  1.0000
  C   C11       1.0  0.1730781093404885  0.15684408574996356  0.14817459910670827  1.0000
  C   C12       1.0  0.16409206296366996  0.006504608260451404  0.14483563789358578  1.0000
  C   C13       1.0  0.14910251696589505  0.9233280166479833  0.27466315125843255  1.0000
  C   C14       1.0  0.14284761123499418  0.9876871007933111  0.40733923613843337  1.0000
  N   N3        1.0  0.17086291844164436  0.935666928419852  0.01185781538427322  1.0000
  C   C15       1.0  0.18666306083395234  0.012196431576644736  0.8712507388866705  1.0000
  H   H4        1.0  0.16903391924327016  0.40488433517533445  0.6452987832401145  1.0000
  H   H5        1.0  0.17040947353005875  0.3392503388340382  0.27669465336062027  1.0000
  H   H6        1.0  0.18505715906467213  0.224495341504984  0.050301727216548235  1.0000
  H   H7        1.0  0.14453684224693775  0.8069015787313265  0.27239024167078907  1.0000
  H   H8        1.0  0.17916607330914336  0.8597884136123113  0.758279159043276  1.0000
  H   H9        1.0  0.16403779984757882  0.8233244531046743  0.014845863580905895  1.0000
  H   H10       1.0  0.12670815421979476  0.0904840344922373  0.8462177227154131  1.0000
  H   H11       1.0  0.2566026289579255  0.06979789072964016  0.8714813283918182  1.0000
  H   H12       1.0  0.1889188640512227  0.9339255640664512  0.7859500262095048  1.0000
  C   C16       1.0  0.1449272266845167  0.5599010863216443  0.984921068122994  1.0000
  C   C17       1.0  0.05881674300451856  0.5945728594911202  0.055476731543008695  1.0000
  C   C18       1.0  0.9769167311731977  0.6411309059696976  0.9767007659409379  1.0000
  C   C19       1.0  0.9795883905333801  0.6539602602681932  0.8261835989721327  1.0000
  C   C20       1.0  0.0638154648507876  0.6177287905591073  0.7539035064810888  1.0000
  C   C21       1.0  0.14671374102515017  0.5681941087635045  0.8311608058116713  1.0000
  Br  Br2       1.0  0.8674852042840324  0.7188424512564454  0.7188288347120131  1.0000
  H   H13       1.0  0.2787760499575298  0.4289566224272259  0.27596866090255423  1.0000
  H   H14       1.0  0.9115792828744989  0.6685923836000771  0.0329743778597289  1.0000
  H   H15       1.0  0.06361167505729415  0.6250979157037396  0.6368408410316424  1.0000
  H   H16       1.0  0.30580798890577676  0.5534050790607388  0.5517863918244594  1.0000
  Zn  Zn1       1.0  0.039942451438352844  0.5639774795597394  0.40804591757406605  1.0000
  Zn  Zn2       1.0  0.251689236065503  0.5641169613195665  0.4080352766690063  1.0000
  C   C22       1.0  0.1464141989305923  0.5608793095469942  0.6712128795496488  1.0000
  C   C23       1.0  0.14521978836662838  0.5672169545080539  0.1448684529831561  1.0000
  C   C24       1.0  0.14395439511100025  0.8274770636429543  0.40186275620988154  1.0000
  C   C25       1.0  0.14767953225700217  0.3006174678493341  0.4142186560161889  1.0000
  O   O1        1.0  0.22567482014410437  0.5697188654935339  0.1985442287367365  1.0000
  O   O2        1.0  0.22667008395962585  0.5584821695967257  0.6175286146246572  1.0000
  O   O3        1.0  0.22468268118158122  0.7737632415866327  0.4000264819007311  1.0000
  O   O4        1.0  0.22766215036682458  0.35443780271738956  0.41604625341229107  1.0000
  O   O5        1.0  0.06396946487821942  0.7736566381158145  0.40003494082683105  1.0000
  O   O6        1.0  0.06595685532667028  0.5583772986425655  0.6175369938535415  1.0000
  O   O7        1.0  0.064961588271089  0.5696139272901074  0.198550875711478  1.0000
  O   O8        1.0  0.06694891879032094  0.35433285525409824  0.41605300843145443  1.0000
