data_image0
_chemical_formula_structural       NC5OC5NC4H8C6BrH5C9H8Zn2C4O8
_chemical_formula_sum              "N2 C33 O9 H21 Br1 Zn2"
_cell_length_a       19.189071930511275
_cell_length_b       9.276564384272257
_cell_length_c       9.275155815604963
_cell_angle_alpha    86.0004437210585
_cell_angle_beta     90.33561097957745
_cell_angle_gamma    90.57707898574843

_space_group_name_H-M_alt    "P 1"
_space_group_IT_number       1

loop_
  _space_group_symop_operation_xyz
  'x, y, z'

loop_
  _atom_site_type_symbol
  _atom_site_label
  _atom_site_symmetry_multiplicity
  _atom_site_fract_x
  _atom_site_fract_y
  _atom_site_fract_z
  _atom_site_occupancy
  N   N1        1.0  0.6591491104221989  0.5643508436919084  0.4084159406214871  1.0000
  C   C1        1.0  0.6048831249327435  0.6153862342312236  0.3880732234844899  1.0000
  C   C2        1.0  0.5373832285132507  0.6788657527135924  0.3627699410600549  1.0000
  C   C3        1.0  0.5278749794553799  0.7855222225556866  0.25012924439827167  1.0000
  C   C4        1.0  0.4623069430537802  0.847266764303646  0.22568967063091175  1.0000
  C   C5        1.0  0.4055832121667942  0.802226915722954  0.3123868453112546  1.0000
  O   O1        1.0  0.34085643254485226  0.8679823790864141  0.28543033798691386  1.0000
  C   C6        1.0  0.27563922023852344  0.8020110414776014  0.31176088403486046  1.0000
  C   C7        1.0  0.21940512156847744  0.8884562699476989  0.3452689983175181  1.0000
  C   C8        1.0  0.1533785133813705  0.8270368499531098  0.37065234329808416  1.0000
  C   C9        1.0  0.1429194447053415  0.6783595925648537  0.36130087932590715  1.0000
  C   C10       1.0  0.074947561830797  0.615107352760296  0.387263707670469  1.0000
  N   N2        1.0  0.020302167310831405  0.5642547540367927  0.4081371540274408  1.0000
  C   C11       1.0  0.198672104224621  0.5915537253508887  0.32566519636148095  1.0000
  C   C12       1.0  0.2646902169640093  0.6530173579971685  0.3003302394543723  1.0000
  C   C13       1.0  0.415584073767175  0.6965882114904427  0.42682272175508085  1.0000
  C   C14       1.0  0.4811433828639888  0.6348396986264431  0.4513304148880246  1.0000
  H   H1        1.0  0.5710917900084275  0.821032883410576  0.18141361923165822  1.0000
  H   H2        1.0  0.45541724956347357  0.9298403417349763  0.13853591814215416  1.0000
  H   H3        1.0  0.22703078462362491  0.003530353425441828  0.35246929862994936  1.0000
  H   H4        1.0  0.11054843370632521  0.8954108378618626  0.3973441621120932  1.0000
  H   H5        1.0  0.19103541644635547  0.47663465784024317  0.3167170277063156  1.0000
  H   H6        1.0  0.3068007484583805  0.5848424933471528  0.2698497727120861  1.0000
  H   H7        1.0  0.37309649136109685  0.6635187538452232  0.49825881484556644  1.0000
  H   H8        1.0  0.48804907859917157  0.5534400878163689  0.5396944723052515  1.0000
  C   C15       1.0  0.8376305263726082  0.14082558523741073  0.40864670619140964  1.0000
  C   C16       1.0  0.82829700800559  0.2231928578497684  0.2769286037767211  1.0000
  C   C17       1.0  0.8254527521252156  0.1570808438169844  0.1464358718636447  1.0000
  C   C18       1.0  0.8319189502017442  0.007661219800135127  0.14518343068386197  1.0000
  C   C19       1.0  0.8400187015208888  0.9235837907178253  0.2749105764752058  1.0000
  C   C20       1.0  0.8418274273908408  0.9877690302634335  0.4079187910588744  1.0000
  Br  Br1       1.0  0.8285386377498223  0.9177621554109716  0.9661241993623825  1.0000
  H   H9        1.0  0.8179122993720412  0.4054012621548693  0.6429733933044088  1.0000
  H   H10       1.0  0.8248504273136693  0.3398289166421457  0.2744639016492203  1.0000
  H   H11       1.0  0.8188833361622018  0.2224381971490399  0.0460501230005661  1.0000
  H   H12       1.0  0.8432335444918572  0.8073161914661244  0.2718008049694163  1.0000
  H   H13       1.0  0.8809570851924964  0.6917592252824317  0.6323575958404699  1.0000
  C   C21       1.0  0.8384340750938215  0.5606525594310554  0.9850556563447485  1.0000
  C   C22       1.0  0.7842662906294906  0.6309342226728161  0.05285222400962276  1.0000
  C   C23       1.0  0.7348136945943149  0.7107987262120312  0.9715373114051805  1.0000
  C   C24       1.0  0.7386127322578198  0.7220539100494376  0.8209429505523125  1.0000
  C   C25       1.0  0.791374322588905  0.6509978187395469  0.7514397665591082  1.0000
  C   C26       1.0  0.8410238612025539  0.567942040404289  0.8315098452830014  1.0000
  C   C27       1.0  0.6877681754745386  0.8052878867820163  0.73731361157515  1.0000
  C   C28       1.0  0.6451950366717156  0.8749849749992098  0.6672588094719059  1.0000
  C   C29       1.0  0.593540191867304  0.9595506069951741  0.5822476751058026  1.0000
  H   H14       1.0  0.9996090810418996  0.4442605318612396  0.09798862728711821  1.0000
  H   H15       1.0  0.781115635821561  0.6269375917201262  0.1696496145164117  1.0000
  H   H16       1.0  0.6939584533290308  0.7650116069475358  0.026335506573064157  1.0000
  H   H17       1.0  0.7926955142523805  0.6577785728890018  0.6342866489416203  1.0000
  H   H18       1.0  0.9485369937186376  0.48440157170692744  0.5579159116088741  1.0000
  H   H19       1.0  0.6077217911675332  0.9636901955888397  0.4662341943414657  1.0000
  H   H20       1.0  0.5413837731438468  0.9082122352780172  0.5973581557216705  1.0000
  H   H21       1.0  0.5923283351877335  0.07090284677327396  0.6186580668696986  1.0000
  Zn  Zn1       1.0  0.7633700964662655  0.564319338841066  0.40834380871119014  1.0000
  Zn  Zn2       1.0  0.9160811764596155  0.5642746074684997  0.4082210798610224  1.0000
  C   C30       1.0  0.8405043241742227  0.5608192846745952  0.6715168524399497  1.0000
  C   C31       1.0  0.8389486258011813  0.5677764819103921  0.14504817468522568  1.0000
  C   C32       1.0  0.8410129626114192  0.8276292552554414  0.4023132373546925  1.0000
  C   C33       1.0  0.8384399269039194  0.3009647794251191  0.4142518681394578  1.0000
  O   O2        1.0  0.8970743415403905  0.5701440687324636  0.19869655583774826  1.0000
  O   O3        1.0  0.8982827779958388  0.5584166563055752  0.6177749089863045  1.0000
  O   O4        1.0  0.8986927333166141  0.7738690949567173  0.4003910844839449  1.0000
  O   O5        1.0  0.8966643338301611  0.3546916394819606  0.4160802723108272  1.0000
  O   O6        1.0  0.7827868869829073  0.773902306844374  0.4004846162956841  1.0000
  O   O7        1.0  0.7823769400093852  0.5584516001144273  0.6178683624633687  1.0000
  O   O8        1.0  0.7811684980496838  0.5701789473660692  0.19878827658141907  1.0000
  O   O9        1.0  0.780758490616096  0.35472650873169664  0.416172101118079  1.0000
