data_image0
_chemical_formula_structural       NC9NC3OH6C7OCH10C8NH7Zn2C4O8
_chemical_formula_sum              "N3 C32 O10 H23 Zn2"
_cell_length_a       15.78231758774541
_cell_length_b       10.30083208314754
_cell_length_c       9.274266800404106
_cell_angle_alpha    85.96676049995207
_cell_angle_beta     89.63778846235708
_cell_angle_gamma    89.62603918792362

_space_group_name_H-M_alt    "P 1"
_space_group_IT_number       1

loop_
  _space_group_symop_operation_xyz
  'x, y, z'

loop_
  _atom_site_type_symbol
  _atom_site_label
  _atom_site_symmetry_multiplicity
  _atom_site_fract_x
  _atom_site_fract_y
  _atom_site_fract_z
  _atom_site_occupancy
  N   N1        1.0  0.8050813670304843  0.4024293997766701  0.4121333200446351  1.0000
  C   C1        1.0  0.7564321863257426  0.32055347056558214  0.4388918538557523  1.0000
  C   C2        1.0  0.6960324538668684  0.2189255432975452  0.4721060874534704  1.0000
  C   C3        1.0  0.7155127960426207  0.09126389430897873  0.5137403760343667  1.0000
  C   C4        1.0  0.6386935121274181  0.029394620619431325  0.5340007305103351  1.0000
  C   C5        1.0  0.5770475307944967  0.12387916105784091  0.5032324111886923  1.0000
  C   C6        1.0  0.4839311820020337  0.10641110148548559  0.5090228595804565  1.0000
  C   C7        1.0  0.43033959018893453  0.21351993381498285  0.4739599351301483  1.0000
  C   C8        1.0  0.34211226722676785  0.19919659742967208  0.47871591204338776  1.0000
  C   C9        1.0  0.28782868660050204  0.30942175498212476  0.4426236604504484  1.0000
  N   N2        1.0  0.24419756873200524  0.3980285510234855  0.4136087175902652  1.0000
  C   C10       1.0  0.3067950099964242  0.07760502747522824  0.5185892549590532  1.0000
  C   C11       1.0  0.3594559644551257  0.9707176723071653  0.553584523979689  1.0000
  C   C12       1.0  0.4474970592334711  0.9846475141322967  0.5489577896347886  1.0000
  O   O1        1.0  0.6136660543261593  0.23585489266595516  0.466659778134956  1.0000
  H   H1        1.0  0.7779120028902952  0.04821142529702405  0.527724510882684  1.0000
  H   H2        1.0  0.6298160622736202  0.927664500790643  0.5671949014539779  1.0000
  H   H3        1.0  0.45708094035785857  0.30813969980142875  0.4429261634597159  1.0000
  H   H4        1.0  0.2386610819545382  0.06547388997881186  0.5226149642840433  1.0000
  H   H5        1.0  0.33198522537965086  0.876744779321745  0.5844066028531851  1.0000
  H   H6        1.0  0.48646209328553286  0.8999852633155518  0.5766856642032103  1.0000
  C   C13       1.0  0.024666468225787778  0.01889298883243428  0.4130223621976181  1.0000
  C   C14       1.0  0.0017544262608324417  0.027553829832102743  0.2665742099289963  1.0000
  C   C15       1.0  0.9892266131903502  0.9147805056796394  0.19326367168243408  1.0000
  C   C16       1.0  0.0016950147388423724  0.7922929306846901  0.2661931431066069  1.0000
  C   C17       1.0  0.0246205225647289  0.7815549880728921  0.41273218006843937  1.0000
  C   C18       1.0  0.035772663090075436  0.8953906781809858  0.485368910834364  1.0000
  C   C19       1.0  0.9671454566644639  0.9252130189451439  0.035514618974492144  1.0000
  O   O2        1.0  0.04278131007373399  0.929816697466537  0.9533627766527877  1.0000
  C   C20       1.0  0.02290694883187894  0.9396472133850647  0.8049905988000324  1.0000
  H   H7        1.0  0.03440639414001989  0.34299202608525103  0.46868564333978613  1.0000
  H   H8        1.0  0.9935755241806836  0.12193363368453956  0.20891977293202293  1.0000
  H   H9        1.0  0.993474556639092  0.7055239797293941  0.20827710117542186  1.0000
  H   H10       1.0  0.05345063966785665  0.8879481064953716  0.5983118574000386  1.0000
  H   H11       1.0  0.06879909922947358  0.5540668225931034  0.6887305115352251  1.0000
  H   H12       1.0  0.928245937516266  0.01471207487888315  0.011285597763291081  1.0000
  H   H13       1.0  0.9282814767742685  0.8396200305518532  0.010955183360053635  1.0000
  H   H14       1.0  0.08288886604654055  0.943158521488854  0.7418764749127549  1.0000
  H   H15       1.0  0.9869549017454722  0.03071357725423795  0.7748091388319032  1.0000
  H   H16       1.0  0.9869712705806827  0.8532289971228548  0.7744519824825806  1.0000
  C   C21       1.0  0.026592424237884993  0.3973652051658319  0.9895741596805739  1.0000
  C   C22       1.0  0.9773597269050069  0.30489833237052766  0.07059357984950322  1.0000
  C   C23       1.0  0.922999224134832  0.22258215379160395  0.0025454267855335956  1.0000
  C   C24       1.0  0.9160593841317742  0.2314778785177709  0.8518208903113793  1.0000
  C   C25       1.0  0.9664554638303694  0.3208285392533663  0.7695003085514198  1.0000
  C   C26       1.0  0.022694514520755094  0.40308277182965857  0.8361803183976786  1.0000
  C   C27       1.0  0.8583531688207584  0.1413576984372784  0.7785797002756412  1.0000
  C   C28       1.0  0.9042429508203178  0.022178940466144537  0.7475639478259467  1.0000
  N   N3        1.0  0.9404668032019861  0.9281193250805186  0.7230825671702905  1.0000
  H   H17       1.0  0.119913456790319  0.6822285827876964  0.06921429562897163  1.0000
  H   H18       1.0  0.9795233871097714  0.29815127251047224  0.18761743034323475  1.0000
  H   H19       1.0  0.8856111935458038  0.15255808034828644  0.06769055609498031  1.0000
  H   H20       1.0  0.963155575085304  0.32382454890379453  0.6525970985726244  1.0000
  H   H21       1.0  0.08860336604737523  0.5923192235419763  0.539989556699398  1.0000
  H   H22       1.0  0.834182194446607  0.1891483585208158  0.675711368089575  1.0000
  H   H23       1.0  0.8027834969222215  0.11523335437180225  0.8485647069225802  1.0000
  Zn  Zn1       1.0  0.9318007756789896  0.4011559973846137  0.41256740665151115  1.0000
  Zn  Zn2       1.0  0.11747807797625026  0.39929143444128123  0.4131864186741263  1.0000
  C   C29       1.0  0.02342974321865364  0.39682881830416283  0.6761556182462207  1.0000
  C   C30       1.0  0.025851137276783565  0.40362023259438984  0.1495983546978128  1.0000
  C   C31       1.0  0.024651270868477394  0.6373568880198173  0.40704277589019444  1.0000
  C   C32       1.0  0.02462954600848533  0.1630906038661195  0.4187112742881929  1.0000
  O   O3        1.0  0.09606592349881476  0.4050062197677484  0.20353885037699704  1.0000
  O   O4        1.0  0.09413973512947035  0.394026688559548  0.6226845237889866  1.0000
  O   O5        1.0  0.09512517737145293  0.5882561664088368  0.4053739958879232  1.0000
  O   O6        1.0  0.09508041839480885  0.21077675111419691  0.42084926998160443  1.0000
  O   O7        1.0  0.9541983718979145  0.5896706813493444  0.404904555125212  1.0000
  O   O8        1.0  0.9532129299118919  0.3954427631503173  0.6222150055731002  1.0000
  O   O9        1.0  0.9551391263196781  0.40642223740145716  0.20306759909089145  1.0000
  O   O10       1.0  0.9541536207151802  0.21219276018981437  0.42037812677313396  1.0000
