data_image0
_chemical_formula_structural       NC5OC5NC4H8C6BrH5C7OH5Zn2C4O8
_chemical_formula_sum              "N2 C31 O10 H18 Br1 Zn2"
_cell_length_a       19.189071930511275
_cell_length_b       9.276564384272257
_cell_length_c       9.274074313596556
_cell_angle_alpha    86.07032153844699
_cell_angle_beta     90.21172444201244
_cell_angle_gamma    90.57707898574843

_space_group_name_H-M_alt    "P 1"
_space_group_IT_number       1

loop_
  _space_group_symop_operation_xyz
  'x, y, z'

loop_
  _atom_site_type_symbol
  _atom_site_label
  _atom_site_symmetry_multiplicity
  _atom_site_fract_x
  _atom_site_fract_y
  _atom_site_fract_z
  _atom_site_occupancy
  N   N1        1.0  0.6608034537812462  0.5624389775780524  0.4083789096041318  1.0000
  C   C1        1.0  0.6065586131624006  0.6134499317381961  0.3880357191578505  1.0000
  C   C2        1.0  0.5390850177836821  0.6768990550378844  0.3627318480078091  1.0000
  C   C3        1.0  0.5296938510673831  0.7834202169584641  0.2500885305610485  1.0000
  C   C4        1.0  0.464151217940164  0.8451354010406142  0.22564838816379076  1.0000
  C   C5        1.0  0.4073373712378457  0.8001996961207382  0.31234758000719987  1.0000
  O   O1        1.0  0.3426386110714974  0.8659227783902825  0.2853904454920515  1.0000
  C   C6        1.0  0.2773940299537396  0.7999830699489343  0.31172160416670947  1.0000
  C   C7        1.0  0.22112510187835294  0.8864685495310346  0.3452304980748944  1.0000
  C   C8        1.0  0.15507210943089145  0.8250796208930529  0.37061443364386387  1.0000
  C   C9        1.0  0.14462276096550944  0.6763911302011085  0.361262752093342  1.0000
  C   C10       1.0  0.07662389149707399  0.6131700778487246  0.38722618450901247  1.0000
  N   N2        1.0  0.021956800449578096  0.5623425530347859  0.4081001165236226  1.0000
  C   C11       1.0  0.20041246135304217  0.5895424561656615  0.32562624000174134  1.0000
  C   C12       1.0  0.2664569080566744  0.650975655580771  0.3002906936320633  1.0000
  C   C13       1.0  0.41721928452939183  0.6946984562421152  0.4267861190040352  1.0000
  C   C14       1.0  0.4827531195463786  0.6329793828712755  0.4512943823517935  1.0000
  H   H1        1.0  0.572982086838274  0.8188483342150599  0.18137130660391398  1.0000
  H   H2        1.0  0.4573521148467617  0.9276042863539908  0.1384926078888782  1.0000
  H   H3        1.0  0.22874328071114045  0.0015512822598773219  0.352430965915044  1.0000
  H   H4        1.0  0.11221428542595299  0.8934856719426784  0.397306873490234  1.0000
  H   H5        1.0  0.1927850745873765  0.474612639803687  0.3166778631516108  1.0000
  H   H6        1.0  0.3085991219227297  0.5827641767342535  0.2698095177078237  1.0000
  H   H7        1.0  0.3746574491641286  0.6617148101158543  0.49822387418153835  1.0000
  H   H8        1.0  0.4895669668550172  0.5516859180395198  0.5396604957150607  1.0000
  C   C15       1.0  0.8392846298665435  0.13891399632718104  0.40860968054322344  1.0000
  C   C16       1.0  0.8300880235065993  0.22112304457488524  0.27688851347398025  1.0000
  C   C17       1.0  0.8273794059440204  0.15485427813510189  0.14639274541676017  1.0000
  C   C18       1.0  0.8338469058479554  0.005433149642358302  0.14514027509671923  1.0000
  C   C19       1.0  0.8418118146239972  0.9215115533183782  0.2748704392194914  1.0000
  C   C20       1.0  0.8434822875030389  0.9858565669562359  0.4078817484744555  1.0000
  Br  Br1       1.0  0.8306527132861313  0.9153189930783774  0.9660768776456137  1.0000
  H   H9        1.0  0.8193228362152625  0.40377115460908536  0.6429418196809311  1.0000
  H   H10       1.0  0.8266440047048736  0.337756142681366  0.2744237540008263  1.0000
  H   H11       1.0  0.8209143341380088  0.22009104461506235  0.04600466090173416  1.0000
  H   H12       1.0  0.8450298899908975  0.8052402185010125  0.27176059535936914  1.0000
  H   H13       1.0  0.8823786564350207  0.6901163656716071  0.6323257752216929  1.0000
  C   C21       1.0  0.8405284726684474  0.5582321382228632  0.9850087751018006  1.0000
  C   C22       1.0  0.7799781770688213  0.600822662906075  0.05490794554376954  1.0000
  C   C23       1.0  0.7229169569140788  0.6550016725993106  0.9757234219072763  1.0000
  C   C24       1.0  0.7250721256950177  0.6680311965753815  0.8244306079198641  1.0000
  C   C25       1.0  0.7846728719765099  0.623699904061942  0.7533937742028871  1.0000
  C   C26       1.0  0.8422384177823928  0.5665384093407186  0.8314827537702172  1.0000
  C   C27       1.0  0.6654158541509652  0.7261765974790853  0.7390362190919517  1.0000
  O   O2        1.0  0.6110058969105933  0.7663709846761371  0.7997501223091859  1.0000
  H   H14       1.0  0.010618833071313727  0.5214460711028368  0.09169747238899408  1.0000
  H   H15       1.0  0.6773564611546151  0.688026241753337  0.03313200161127683  1.0000
  H   H16       1.0  0.7855150169697498  0.6306881918406742  0.6362304817260664  1.0000
  H   H17       1.0  0.9565448452353841  0.5365353564429921  0.5539543300611123  1.0000
  H   H18       1.0  0.6679338155849196  0.7349291763314669  0.6221572686162067  1.0000
  Zn  Zn1       1.0  0.7650245148015264  0.5624073860798509  0.4083067760155581  1.0000
  Zn  Zn2       1.0  0.9177357223631671  0.5623625072811225  0.40818404430988653  1.0000
  C   C28       1.0  0.8418851920333984  0.5592234645244233  0.6714859429305187  1.0000
  C   C29       1.0  0.8408767220368022  0.565548249278407  0.14500501595111293  1.0000
  C   C30       1.0  0.8426736493153635  0.8257100583622216  0.40227606434715507  1.0000
  C   C31       1.0  0.8400882042133124  0.29905992363032174  0.414214972905275  1.0000
  O   O3        1.0  0.8989466739333413  0.5679802804013521  0.19865464532808286  1.0000
  O   O4        1.0  0.8997195069493317  0.5567562794642398  0.6177427490755334  1.0000
  O   O5        1.0  0.9003554179677095  0.7719475891066327  0.400353866754122  1.0000
  O   O6        1.0  0.8983107106377987  0.3527889800298299  0.41604341961770086  1.0000
  O   O7        1.0  0.7844494744140469  0.7719809133479538  0.400447400742044  1.0000
  O   O8        1.0  0.783813571824346  0.5567913355326579  0.617836204726958  1.0000
  O   O9        1.0  0.7830407351051609  0.5680152692131046  0.19874636820579927  1.0000
  O   O10       1.0  0.7824047719739352  0.3528239595875218  0.41613525056151146  1.0000
