data_image0
_chemical_formula_structural       NC9NC3OH6C8H6C6NO2H3Zn2C4O8
_chemical_formula_sum              "N3 C30 O11 H15 Zn2"
_cell_length_a       15.78231758774541
_cell_length_b       9.27514070457351
_cell_length_c       9.273395971720355
_cell_angle_alpha    85.10192813467344
_cell_angle_beta     89.96902430017013
_cell_angle_gamma    90.22379856908987

_space_group_name_H-M_alt    "P 1"
_space_group_IT_number       1

loop_
  _space_group_symop_operation_xyz
  'x, y, z'

loop_
  _atom_site_type_symbol
  _atom_site_label
  _atom_site_symmetry_multiplicity
  _atom_site_fract_x
  _atom_site_fract_y
  _atom_site_fract_z
  _atom_site_occupancy
  N   N1        1.0  0.80930048573633  0.58562402047174  0.4141374253164737  1.0000
  C   C1        1.0  0.7601837091583369  0.4942365675172997  0.44068353574088637  1.0000
  C   C2        1.0  0.699203577884128  0.3808025206082888  0.47363410085231356  1.0000
  C   C3        1.0  0.7179545458025512  0.23831199925560304  0.5149370499580929  1.0000
  C   C4        1.0  0.6407820600419614  0.16925464987861916  0.5350369458055566  1.0000
  C   C5        1.0  0.579676054991377  0.2747134647162317  0.5045139228668887  1.0000
  C   C6        1.0  0.4864602193053399  0.255214677139737  0.5102591692034026  1.0000
  C   C7        1.0  0.43348013520329276  0.3747673765289013  0.4754740500945967  1.0000
  C   C8        1.0  0.34517126240913193  0.35877875512296586  0.48019297407176437  1.0000
  C   C9        1.0  0.2915169504931598  0.4818099979785991  0.44438659727653823  1.0000
  N   N2        1.0  0.24839167861985442  0.5807112589812853  0.41560145877331034  1.0000
  C   C10       1.0  0.309160045163813  0.22305947333625298  0.519751048545744  1.0000
  C   C11       1.0  0.3612107726369116  0.10375389524953627  0.5544690936777855  1.0000
  C   C12       1.0  0.4493311721404497  0.11930329833303821  0.5498783922933155  1.0000
  O   O1        1.0  0.6169341526456542  0.39969699910535694  0.4682318391411305  1.0000
  H   H1        1.0  0.7801075894990454  0.19025967354423298  0.5288093624092169  1.0000
  H   H2        1.0  0.63132344835635  0.05570749830132838  0.5679671057704492  1.0000
  H   H3        1.0  0.4607614914864526  0.48038109753474895  0.44468560548150116  1.0000
  H   H4        1.0  0.24095704063816853  0.20951796649973758  0.5237453725014816  1.0000
  H   H5        1.0  0.3332037208085552  0.9988621995377286  0.5850475233671097  1.0000
  H   H6        1.0  0.48781289459362026  0.02480478288936603  0.5773866994589008  1.0000
  C   C13       1.0  0.026277574089079714  0.15976614956506063  0.41385130861375213  1.0000
  C   C14       1.0  0.03853414247827966  0.24444101198414692  0.28220819885858184  1.0000
  C   C15       1.0  0.05817323681402284  0.1802229583391548  0.15576365390551028  1.0000
  C   C16       1.0  0.0660248579810025  0.030176641239640038  0.15853418669764646  1.0000
  C   C17       1.0  0.052686022290236535  0.9439576649599164  0.2878077807141075  1.0000
  C   C18       1.0  0.031422570920203174  0.0065578360403841665  0.41590007666769735  1.0000
  C   C19       1.0  0.08682472917608774  0.9642366871258408  0.0280584411486422  1.0000
  C   C20       1.0  0.10424012380287011  0.9090131078242789  0.9188222655418358  1.0000
  H   H7        1.0  0.03970933242186844  0.23243060052879966  0.7686040486612893  1.0000
  H   H8        1.0  0.03489624844368677  0.3613525932460868  0.27777442055757984  1.0000
  H   H9        1.0  0.06806425357843526  0.24789156354562758  0.055999702223540115  1.0000
  H   H10       1.0  0.05695727623120095  0.8273045001879259  0.28764369333268147  1.0000
  H   H11       1.0  0.037214013958559944  0.7054802143144495  0.6549072582016593  1.0000
  H   H12       1.0  0.11952710310827626  0.8605367088984313  0.8229358430072029  1.0000
  C   C21       1.0  0.02935914470162614  0.5875859503331273  0.9909512851011977  1.0000
  C   C22       1.0  0.9540442412308966  0.621340059164174  0.06136582286880277  1.0000
  C   C23       1.0  0.8784093483046914  0.6414635898770444  0.9847304630484026  1.0000
  C   C24       1.0  0.8759426422670727  0.628244226482267  0.8353958215322106  1.0000
  C   C25       1.0  0.9512272800897433  0.596961159995036  0.7635494320547315  1.0000
  C   C26       1.0  0.028340998724860168  0.5787380299212779  0.8388000862433814  1.0000
  N   N3        1.0  0.7975130174210231  0.6479184986455505  0.7570419062540249  1.0000
  O   O2        1.0  0.7240714618700484  0.6797284341247501  0.8276459702836598  1.0000
  O   O3        1.0  0.794742556080414  0.6360664867112551  0.6240086198944959  1.0000
  H   H13       1.0  0.2137727556823168  0.4239862983398505  0.10760059039061369  1.0000
  H   H14       1.0  0.821534215522423  0.666009461713446  0.04298117059289464  1.0000
  H   H15       1.0  0.15411223182197187  0.4727911008370713  0.5675193729482945  1.0000
  Zn  Zn1       1.0  0.9360126820629627  0.5842023653922106  0.41456823406269416  1.0000
  Zn  Zn2       1.0  0.12167936813038821  0.5821210232211981  0.4151824225091903  1.0000
  C   C27       1.0  0.028496677685124094  0.5746666066212727  0.678524586658046  1.0000
  C   C28       1.0  0.02919741086590831  0.5916585770048934  0.15122622271212216  1.0000
  C   C29       1.0  0.030452620899595214  0.8465562629501099  0.40976012293818964  1.0000
  C   C30       1.0  0.02724139367885603  0.3197671883121942  0.41999075899603433  1.0000
  O   O4        1.0  0.09960263304717126  0.5922292390234105  0.20524902200004586  1.0000
  O   O5        1.0  0.09900816808461062  0.5725151706882814  0.6249675239960066  1.0000
  O   O6        1.0  0.1005866653357505  0.7920695016708016  0.4079383184740933  1.0000
  O   O7        1.0  0.09802407263321418  0.3726749201948193  0.42227811909700397  1.0000
  O   O8        1.0  0.9596679142012277  0.7936484691304981  0.4074725372576983  1.0000
  O   O9        1.0  0.9580894275637598  0.5740958712237485  0.6245016699983743  1.0000
  O   O10       1.0  0.9586838943615955  0.5938099074269778  0.2047814322497208  1.0000
  O   O11       1.0  0.9571053337515459  0.3742555771563663  0.4218106375544531  1.0000
