data_image0
_chemical_formula_structural       NC9NC3OH6C7NC2NH8C7F3H5Zn2C4O8
_chemical_formula_sum              "N4 C32 O9 H19 F3 Zn2"
_cell_length_a       15.78231758774541
_cell_length_b       9.273995741505848
_cell_length_c       9.272721663655245
_cell_angle_alpha    86.0144275597797
_cell_angle_beta     90.60221336655935
_cell_angle_gamma    90.21461439936415

_space_group_name_H-M_alt    "P 1"
_space_group_IT_number       1

loop_
  _space_group_symop_operation_xyz
  'x, y, z'

loop_
  _atom_site_type_symbol
  _atom_site_label
  _atom_site_symmetry_multiplicity
  _atom_site_fract_x
  _atom_site_fract_y
  _atom_site_fract_z
  _atom_site_occupancy
  N   N1        1.0  0.7988105311939663  0.5605993784601468  0.41605350318761136  1.0000
  C   C1        1.0  0.7498754156917412  0.46962332968996856  0.4425606765762505  1.0000
  C   C2        1.0  0.6891207725093641  0.3566999415645564  0.4754629109320112  1.0000
  C   C3        1.0  0.7081544140991708  0.2148494869544062  0.5167052462271038  1.0000
  C   C4        1.0  0.63111946355015  0.14610365611855802  0.5367756748020096  1.0000
  C   C5        1.0  0.5698045469068658  0.251089477635855  0.5062974623845882  1.0000
  C   C6        1.0  0.47662800107322556  0.2316797605868255  0.5120343113768169  1.0000
  C   C7        1.0  0.42340989303864024  0.35069334704045696  0.47730019304449134  1.0000
  C   C8        1.0  0.3351332888955194  0.33477788784419005  0.4820122226170947  1.0000
  C   C9        1.0  0.2812339678318028  0.4572541862989221  0.4462583406077656  1.0000
  N   N2        1.0  0.23791173087970158  0.555709320853047  0.4175154027189953  1.0000
  C   C10       1.0  0.29939273322992477  0.19967171949534746  0.5215123235101378  1.0000
  C   C11       1.0  0.3516810241160834  0.08090421672287017  0.5561794679637992  1.0000
  C   C12       1.0  0.43977003221913297  0.09638244500859391  0.5515954731436935  1.0000
  O   O1        1.0  0.6068143506040491  0.3755107315871984  0.4700686044980842  1.0000
  H   H1        1.0  0.7704024168456041  0.16701211631738566  0.5305571799008354  1.0000
  H   H2        1.0  0.6218862174748907  0.03306682591654874  0.569657514534575  1.0000
  H   H3        1.0  0.4504805923896644  0.45582987365833505  0.44655686794860255  1.0000
  H   H4        1.0  0.23121704318642322  0.1861921397474768  0.5255008108671213  1.0000
  H   H5        1.0  0.3238831921307549  0.976486460534471  0.5867130860767551  1.0000
  H   H6        1.0  0.4784399814360407  0.0023102688630425128  0.5790634532677794  1.0000
  C   C13       1.0  0.01582559987927533  0.13468777770683538  0.4157226281377613  1.0000
  C   C14       1.0  0.030008768101028357  0.21704389340793553  0.28536565457468743  1.0000
  C   C15       1.0  0.05180219297849217  0.15099455226331449  0.16044255241711958  1.0000
  C   C16       1.0  0.06033027924043896  0.0004636849962318407  0.16230905709230292  1.0000
  C   C17       1.0  0.044361589961121134  0.9168432418505783  0.2914655610579524  1.0000
  C   C18       1.0  0.020904747321896837  0.9816097706305379  0.4178586992439997  1.0000
  C   C19       1.0  0.08445219821311406  0.932455629458636  0.028391657097635244  1.0000
  N   N3        1.0  0.08684210123654873  0.005987941380777295  0.8973718788588738  1.0000
  C   C20       1.0  0.11177432238135653  0.9073205670236708  0.8067653648419566  1.0000
  C   C21       1.0  0.1242709173540224  0.7766908796039251  0.8833566945463273  1.0000
  N   N4        1.0  0.10712437798869584  0.7926527748071649  0.022720151621678394  1.0000
  H   H7        1.0  0.9482179839172129  0.40119168012124584  0.6230269985494467  1.0000
  H   H8        1.0  0.026297374525582767  0.3339033480035063  0.2807025481166734  1.0000
  H   H9        1.0  0.06323961291445501  0.2185246498799811  0.0625254554034842  1.0000
  H   H10       1.0  0.047241247626023525  0.8002601367886066  0.2934734499662839  1.0000
  H   H11       1.0  0.023288113124149565  0.6848804289628935  0.6576602936933758  1.0000
  H   H12       1.0  0.12053727281913316  0.929607937431093  0.6918291521805298  1.0000
  H   H13       1.0  0.14485300541130042  0.6771134502301634  0.8406788451253631  1.0000
  H   H14       1.0  0.11217726568350804  0.7125225454191286  0.10702504667638224  1.0000
  C   C22       1.0  0.016109360928075796  0.5558348634763514  0.9933340902094568  1.0000
  C   C23       1.0  0.05146250610359201  0.4374824719332837  0.07587898835134754  1.0000
  C   C24       1.0  0.094293286898041  0.32762495960608723  0.00984290124495214  1.0000
  C   C25       1.0  0.09916334381536135  0.3342116236452328  0.8587259120237479  1.0000
  C   C26       1.0  0.06329004677901491  0.44956724890047184  0.7752034676057511  1.0000
  C   C27       1.0  0.02062100503146967  0.5604627593269362  0.840247243642027  1.0000
  C   C28       1.0  0.129789695391205  0.19973339614142985  0.09998942960563606  1.0000
  F   F1        1.0  0.15857494388620452  0.2413268318639712  0.232423084248919  1.0000
  F   F2        1.0  0.196970111796808  0.13933428536566542  0.030943924610855815  1.0000
  F   F3        1.0  0.06696276716726302  0.09662770101515128  0.12255624307195669  1.0000
  H   H15       1.0  0.9644614936374503  0.8998241586470243  0.07024077600864076  1.0000
  H   H16       1.0  0.047201134323606286  0.4324064450319518  0.19269761539072516  1.0000
  H   H17       1.0  0.12997207875151817  0.24915226480760055  0.8047086570935424  1.0000
  H   H18       1.0  0.06692350909056571  0.4499880229142191  0.6585621009392422  1.0000
  H   H19       1.0  0.8700313645220868  0.8053789184250904  0.7190636424347715  1.0000
  Zn  Zn1       1.0  0.9255256698937839  0.5591844070300253  0.41648368653991025  1.0000
  Zn  Zn2       1.0  0.11119655589935301  0.5571125871974463  0.4170969776122816  1.0000
  C   C29       1.0  0.019731847584001577  0.5538432128760404  0.6801480448766635  1.0000
  C   C30       1.0  0.016992417395279125  0.5624555790002681  0.15343277209535588  1.0000
  C   C31       1.0  0.019909706884006825  0.821492177221622  0.41170864399855533  1.0000
  C   C32       1.0  0.01681448475798164  0.2948048832441834  0.42187224527416783  1.0000
  O   O2        1.0  0.08774987509042748  0.5638850156241042  0.2073960771540504  1.0000
  O   O3        1.0  0.08989428749975104  0.5508402227998381  0.6266497957040073  1.0000
  O   O4        1.0  0.09003696927161425  0.7669701651843586  0.40988308088594827  1.0000
  O   O5        1.0  0.08760712944755839  0.3477550836714689  0.42416268366796767  1.0000
  O   O6        1.0  0.9491150329851865  0.7685419112645415  0.40941798026735676  1.0000
  O   O7        1.0  0.9489723611902224  0.5524137009990631  0.6261846225678451  1.0000
  O   O8        1.0  0.9468279393001363  0.5654584340974051  0.20692917017528512  1.0000
  O   O9        1.0  0.9466851941678812  0.34932849242142394  0.42369588477647735  1.0000
