data_image0
_chemical_formula_structural       NC8ONCOC5NC2H9C7OC6H9C6N2C6H10Zn2C4O8
_chemical_formula_sum              "N5 C45 O11 H28 Zn2"
_cell_length_a       21.53969851371524
_cell_length_b       15.44810520344615
_cell_length_c       17.11554023763703
_cell_angle_alpha    85.90842964713899
_cell_angle_beta     90.41869257161886
_cell_angle_gamma    90.12818216210049

_space_group_name_H-M_alt    "P 1"
_space_group_IT_number       1

loop_
  _space_group_symop_operation_xyz
  'x, y, z'

loop_
  _atom_site_type_symbol
  _atom_site_label
  _atom_site_symmetry_multiplicity
  _atom_site_fract_x
  _atom_site_fract_y
  _atom_site_fract_z
  _atom_site_occupancy
  N   N1        1.0  0.5760383718134203  0.9439528810442521  0.13445893313541024  1.0000
  C   C1        1.0  0.5288195593951915  0.9745349641374053  0.1486983260353849  1.0000
  C   C2        1.0  0.47008365344869  0.012575763492587815  0.16641054083498036  1.0000
  C   C3        1.0  0.41928606184550965  0.005005675992355575  0.11591496509961507  1.0000
  C   C4        1.0  0.3621969099450938  0.04194512205959078  0.1330111028583013  1.0000
  C   C5        1.0  0.35512273785765436  0.08670247915570717  0.2011963455633068  1.0000
  C   C6        1.0  0.40666988869757226  0.09463226923647894  0.2511839376808678  1.0000
  C   C7        1.0  0.46368563605269386  0.05758237388423004  0.23398504764741435  1.0000
  C   C8        1.0  0.2949428801254531  0.12659457109401692  0.2198863618907828  1.0000
  O   O1        1.0  0.2942779589052827  0.18820755171700762  0.26446103647817654  1.0000
  N   N2        1.0  0.2374690765219092  0.09450154476910044  0.18975095468195957  1.0000
  C   C9        1.0  0.1802983687212258  0.1424378563900546  0.1897046080263144  1.0000
  O   O2        1.0  0.18150110438224576  0.22282328906648574  0.19851755311766783  1.0000
  C   C10       1.0  0.1198040832100675  0.09930888242859726  0.1771809588068155  1.0000
  C   C11       1.0  0.11222037690186158  0.009520380592810348  0.19478056110779846  1.0000
  C   C12       1.0  0.054840683440611396  0.9697680924170909  0.18304276624862548  1.0000
  C   C13       1.0  0.004258639614171098  0.01911796531899057  0.15394780826400634  1.0000
  C   C14       1.0  0.9452232686779536  0.9780870836885387  0.14193129632770685  1.0000
  N   N3        1.0  0.897763679864559  0.9451013828125037  0.13227094412672868  1.0000
  C   C15       1.0  0.011165739944953701  0.10853792646405219  0.13691415634664184  1.0000
  C   C16       1.0  0.0684730216091929  0.1484543537550611  0.14865232698149403  1.0000
  H   H1        1.0  0.423867147697905  0.9708908991021127  0.06310305302455899  1.0000
  H   H2        1.0  0.3241570108957073  0.036591543604439725  0.09200595064799744  1.0000
  H   H3        1.0  0.4027736477489731  0.12891353162291333  0.3039578589080392  1.0000
  H   H4        1.0  0.5027495581716531  0.06404414876321374  0.27339930450843686  1.0000
  H   H5        1.0  0.23723872469143942  0.03367356320325231  0.1668811546786467  1.0000
  H   H6        1.0  0.1500902799156706  0.9699776893655488  0.2189057438509495  1.0000
  H   H7        1.0  0.0498684754310606  0.9005933502454213  0.1970204899669623  1.0000
  H   H8        1.0  0.9722735409794193  0.14742838967915928  0.11455127115216973  1.0000
  H   H9        1.0  0.0727614500278329  0.21770729974168113  0.1348044939218589  1.0000
  C   C17       1.0  0.7368870294185629  0.6902595214150743  0.1333448281567956  1.0000
  C   C18       1.0  0.7767686541006176  0.6182400395455154  0.139664227427268  1.0000
  C   C19       1.0  0.7543836894749808  0.536242603841289  0.16555972938732944  1.0000
  C   C20       1.0  0.6915177918009696  0.5244247450630536  0.1850736722721366  1.0000
  C   C21       1.0  0.6518302766705577  0.5966306323222629  0.17972723951373326  1.0000
  C   C22       1.0  0.6741844662883895  0.6786467521343856  0.15381348069318823  1.0000
  C   C23       1.0  0.6674041859359551  0.4379618295209286  0.2136346082088818  1.0000
  O   O3        1.0  0.6243545182731852  0.43389719566461243  0.2633535565608862  1.0000
  C   C24       1.0  0.6920800405201347  0.3561054864217346  0.18584782988623272  1.0000
  C   C25       1.0  0.7130020186991324  0.3521985306673652  0.10859331978924147  1.0000
  C   C26       1.0  0.7354208018406297  0.27443143263190806  0.08274433414289739  1.0000
  C   C27       1.0  0.7369210317210269  0.19878816884217168  0.1333917519915061  1.0000
  C   C28       1.0  0.7152590124005586  0.20243558733890027  0.21035749987480307  1.0000
  C   C29       1.0  0.6928284559354141  0.28022316102124156  0.23616612931135483  1.0000
  H   H10       1.0  0.8398063886386351  0.8468499898068425  0.06692864330837567  1.0000
  H   H11       1.0  0.8254108821428896  0.6251959701161246  0.12493186121599564  1.0000
  H   H12       1.0  0.786464125436915  0.4822592287255497  0.17114687013285046  1.0000
  H   H13       1.0  0.6032804640724674  0.5894673108317257  0.19496936477964813  1.0000
  H   H14       1.0  0.6423308352195661  0.7329421699949296  0.1498459508375939  1.0000
  H   H15       1.0  0.711397238407772  0.40905935832670887  0.0678088827912171  1.0000
  H   H16       1.0  0.7513196123910817  0.27356918163399485  0.022936848209698546  1.0000
  H   H17       1.0  0.7156041600383546  0.14516522662253106  0.25071519629932776  1.0000
  H   H18       1.0  0.6765350616125495  0.28126426867766313  0.2958129180105842  1.0000
  C   C30       1.0  0.7346199061011094  0.9429959723256118  0.9039727477472701  1.0000
  C   C31       1.0  0.7823203530565119  0.9749063746072927  0.8541782220092748  1.0000
  C   C32       1.0  0.7767744832382435  0.9711963386382474  0.7730397456338759  1.0000
  C   C33       1.0  0.7233224993703457  0.935438394143114  0.7403434373832909  1.0000
  C   C34       1.0  0.6757861919865297  0.9036380611380763  0.7897788011683105  1.0000
  C   C35       1.0  0.6812482774241143  0.907292179896209  0.8709192145491947  1.0000
  N   N4        1.0  0.7161590949069482  0.9306457234198878  0.6574851999367586  1.0000
  N   N5        1.0  0.7575959601810471  0.9583667780830775  0.6092601819568082  1.0000
  C   C36       1.0  0.7504324623047808  0.953574177473096  0.5264018876317378  1.0000
  C   C37       1.0  0.797969502138287  0.9853751346610652  0.4769654731508313  1.0000
  C   C38       1.0  0.7925167491252731  0.9817272014250749  0.3958204048664075  1.0000
  C   C39       1.0  0.7391881300355083  0.9460517334171639  0.36276387761445794  1.0000
  C   C40       1.0  0.691445403651658  0.9141129192164464  0.41256948693778855  1.0000
  C   C41       1.0  0.6969815079802875  0.9178166078107063  0.4937063998829878  1.0000
  H   H19       1.0  0.7982891355356301  0.9855859292702476  0.08066530377528314  1.0000
  H   H20       1.0  0.823981961120421  0.0027766931433306197  0.8778331292115116  1.0000
  H   H21       1.0  0.814194876870223  0.996229480221769  0.7360194424506035  1.0000
  H   H22       1.0  0.6343790347075547  0.8759379124311714  0.7652831064220849  1.0000
  H   H23       1.0  0.6436930725806211  0.8821687747732089  0.9077070995994376  1.0000
  H   H24       1.0  0.8393750838225268  0.013074396545377459  0.5014661506290443  1.0000
  H   H25       1.0  0.830081038178565  0.006856734771364393  0.359063710671373  1.0000
  H   H26       1.0  0.6497886636279547  0.8862454800874197  0.3888810956795139  1.0000
  H   H27       1.0  0.6595591235221757  0.8927819910425472  0.5307225856860966  1.0000
  H   H28       1.0  0.7776985705995653  0.9718164772447591  0.1691470825598107  1.0000
  Zn  Zn1       1.0  0.6688813922812857  0.9442820315914402  0.1338320390833375  1.0000
  Zn  Zn2       1.0  0.8049207160428388  0.9447652097205592  0.13290424130410716  1.0000
  C   C42       1.0  0.7383230374736464  0.942024690877449  0.27604219974782984  1.0000
  C   C43       1.0  0.7354805572321329  0.9470236487278159  0.990694147280731  1.0000
  C   C44       1.0  0.7368804094359462  0.1026446779276351  0.13027002457883474  1.0000
  C   C45       1.0  0.736923139194262  0.7864026214996265  0.13646636431771456  1.0000
  O   O4        1.0  0.7873956137539256  0.9485549598201853  0.01944654640326583  1.0000
  O   O5        1.0  0.7896586776684555  0.9408594461032792  0.24658539864784357  1.0000
  O   O6        1.0  0.7884930494252238  0.07056211990145123  0.12887334066613476  1.0000
  O   O7        1.0  0.7885611949933623  0.818852291661038  0.1371585461307293  1.0000
  O   O8        1.0  0.6852408669071769  0.07019494948699154  0.12957773456921828  1.0000
  O   O9        1.0  0.6864064948023945  0.9404933157028532  0.2472897509954417  1.0000
  O   O10       1.0  0.6841434215754832  0.9481887929912881  0.020149959556483577  1.0000
  O   O11       1.0  0.6853090033951297  0.8184861190291467  0.1378620178506954  1.0000
