data_image0
_chemical_formula_structural       NC8Br2C7NH8C12H8C6H4Zn2C4O8
_chemical_formula_sum              "N2 C37 Br2 H20 Zn2 O8"
_cell_length_a       18.47481811020543
_cell_length_b       13.024581838241813
_cell_length_c       10.681121600428288
_cell_angle_alpha    84.14087780974744
_cell_angle_beta     89.99153350595829
_cell_angle_gamma    93.79837390729038

_space_group_name_H-M_alt    "P 1"
_space_group_IT_number       1

loop_
  _space_group_symop_operation_xyz
  'x, y, z'

loop_
  _atom_site_type_symbol
  _atom_site_label
  _atom_site_symmetry_multiplicity
  _atom_site_fract_x
  _atom_site_fract_y
  _atom_site_fract_z
  _atom_site_occupancy
  N   N1        1.0  0.7334609841750677  0.13008474566390377  0.5839045464993988  1.0000
  C   C1        1.0  0.6817137131902633  0.13573377368010897  0.6432051336982476  1.0000
  C   C2        1.0  0.6173449178805993  0.14276001381354758  0.7169679213230653  1.0000
  C   C3        1.0  0.6094867460849971  0.08796570434922389  0.8362525726817224  1.0000
  C   C4        1.0  0.5470856825108422  0.09476374762929285  0.9082421373913894  1.0000
  C   C5        1.0  0.4905701249066126  0.15517065072780498  0.8609186862154724  1.0000
  C   C6        1.0  0.5004621681771761  0.21239514315294736  0.7419411027831213  1.0000
  C   C7        1.0  0.5628752298430418  0.20540004812676593  0.6702491901842487  1.0000
  C   C8        1.0  0.4227448219538427  0.1676819485054879  0.93870032458591  1.0000
  Br  Br1       1.0  0.4055338292557694  0.0601404165164694  0.07877291761127447  1.0000
  Br  Br2       1.0  0.44098980047617686  0.2977553418384755  0.013093759966392728  1.0000
  C   C9        1.0  0.3541583468957465  0.16360437729874344  0.8585873360953488  1.0000
  C   C10       1.0  0.297930569930699  0.23026695074703402  0.8707843504424573  1.0000
  C   C11       1.0  0.23483722490613348  0.22198050408354209  0.7992062984176385  1.0000
  C   C12       1.0  0.22600247770320822  0.14591891249771627  0.7160947514776013  1.0000
  C   C13       1.0  0.2801960594505397  0.07727321052766163  0.705667393122227  1.0000
  C   C14       1.0  0.3432989669475707  0.08531277004791327  0.7770706284136828  1.0000
  C   C15       1.0  0.16092424033458588  0.13748563347891307  0.6427208342599062  1.0000
  N   N2        1.0  0.10860669617370101  0.130706002565766  0.5837328598846176  1.0000
  H   H1        1.0  0.6518884869176054  0.04041888144643746  0.8741416767803656  1.0000
  H   H2        1.0  0.5441267591258987  0.05301766622003655  0.0009855865711547733  1.0000
  H   H3        1.0  0.4596362563273752  0.26279741973396886  0.7043762087987389  1.0000
  H   H4        1.0  0.5687810708231233  0.2493380121027315  0.5786539305858265  1.0000
  H   H5        1.0  0.3016511422257419  0.2885969100528005  0.9358627741617948  1.0000
  H   H6        1.0  0.19266805153919653  0.2745820415699643  0.8094108857804482  1.0000
  H   H7        1.0  0.2735452604472003  0.017110162253455956  0.6428488950761573  1.0000
  H   H8        1.0  0.3839028027101742  0.030083408847649363  0.7687059092418299  1.0000
  C   C16       1.0  0.9071259574446893  0.8274664318949854  0.5930713739544795  1.0000
  C   C17       1.0  0.8749692552551356  0.7649103227665697  0.5057392233801994  1.0000
  C   C18       1.0  0.8989038147173671  0.6666576980725069  0.49455703380230087  1.0000
  C   C19       1.0  0.9549950070273338  0.6289205820915152  0.5710592571710973  1.0000
  C   C20       1.0  0.9876879020176057  0.6915161137697654  0.6573477560060614  1.0000
  C   C21       1.0  0.9638059328932274  0.7898001468922323  0.6686112974567582  1.0000
  C   C22       1.0  0.9811784380711859  0.5255298518739906  0.557837832923022  1.0000
  C   C23       1.0  0.05394021360925505  0.51998307166909  0.5220105532520174  1.0000
  C   C24       1.0  0.0805999934764565  0.4256025146652037  0.5003411961529851  1.0000
  C   C25       1.0  0.035023765090594225  0.3355263523293487  0.5138480277090063  1.0000
  C   C26       1.0  0.9628145622204716  0.33919790858000964  0.5505998771219458  1.0000
  C   C27       1.0  0.9349482912111701  0.4333163822894174  0.5745770946462323  1.0000
  H   H9        1.0  0.8314139257029677  0.7919231465768141  0.4458241706102903  1.0000
  H   H10       1.0  0.8737832960360419  0.6199650870211784  0.42609927412398996  1.0000
  H   H11       1.0  0.031423941359969926  0.6639128483977823  0.7164839351664185  1.0000
  H   H12       1.0  0.9897972803218715  0.8362240218875506  0.7364493549653248  1.0000
  H   H13       1.0  0.08988307859693578  0.5894507994075688  0.5086106509239041  1.0000
  H   H14       1.0  0.1366075197368113  0.4224510075294988  0.4720723530505413  1.0000
  H   H15       1.0  0.05580321141371968  0.26244161795677273  0.49659462744319405  1.0000
  H   H16       1.0  0.7574572582248266  0.3479663633261092  0.6266067171158896  1.0000
  C   C28       1.0  0.9210371327483889  0.13039139088810248  0.21607899263173458  1.0000
  C   C29       1.0  0.8665906459781278  0.07293346839180082  0.1564315709864872  1.0000
  C   C30       1.0  0.8665906038207498  0.07293353446211537  0.025549429035119028  1.0000
  C   C31       1.0  0.9210370781646811  0.13039144136129918  0.9515694267904934  1.0000
  C   C32       1.0  0.9754386176064382  0.1878017487327565  0.011217739008560153  1.0000
  C   C33       1.0  0.975438607610491  0.18780173272149092  0.14211003816414025  1.0000
  H   H17       1.0  0.8239129191637934  0.027895233160812424  0.21085978668975816  1.0000
  H   H18       1.0  0.8239129062756808  0.027895281693517855  0.9823557559888617  1.0000
  H   H19       1.0  0.01812192004370172  0.23284591876378874  0.9568336753468776  1.0000
  H   H20       1.0  0.018121881911507653  0.23284588254109262  0.18525804395187495  1.0000
  Zn  Zn1       1.0  0.8417198068010551  0.13026126370003954  0.5838623062044677  1.0000
  Zn  Zn2       1.0  0.000347474306715331  0.13052103795117537  0.5837855765161728  1.0000
  C   C34       1.0  0.920846769635305  0.12628185433165107  0.8126714524790954  1.0000
  C   C35       1.0  0.9212223034542201  0.1345017517445215  0.3549765125840445  1.0000
  C   C36       1.0  0.9296855409384995  0.3187978349184435  0.5730825873226195  1.0000
  C   C37       1.0  0.9123834211067239  0.941984531689621  0.5945654823654811  1.0000
  O   O1        1.0  0.9814826148865626  0.1359753089595856  0.4015628079882685  1.0000
  O   O2        1.0  0.9809811517076765  0.12500468154928934  0.7660265842816754  1.0000
  O   O3        1.0  0.9881177598136076  0.28046376924110045  0.5725568481865251  1.0000
  O   O4        1.0  0.974345952990641  0.9805162285585359  0.5950324499881952  1.0000
  O   O5        1.0  0.8677212739853436  0.28026607300515344  0.5726154327520083  1.0000
  O   O6        1.0  0.860584722791928  0.1248082246939248  0.7660850642417606  1.0000
  O   O7        1.0  0.861086184368201  0.13577881615652768  0.40161978342309523  1.0000
  O   O8        1.0  0.853949522130484  0.980319728377191  0.5950895195378085  1.0000
