data_image0
_chemical_formula_structural       NC6NSH2C4OC8H10C2NC2NH4Zn2C4O8
_chemical_formula_sum              "N4 C26 S1 H16 O9 Zn2"
_cell_length_a       14.474562073675546
_cell_length_b       15.444553060097464
_cell_length_c       10.619349475309857
_cell_angle_alpha    85.5247812524517
_cell_angle_beta     90.09214881744109
_cell_angle_gamma    90.01628193322479

_space_group_name_H-M_alt    "P 1"
_space_group_IT_number       1

loop_
  _space_group_symop_operation_xyz
  'x, y, z'

loop_
  _atom_site_type_symbol
  _atom_site_label
  _atom_site_symmetry_multiplicity
  _atom_site_fract_x
  _atom_site_fract_y
  _atom_site_fract_z
  _atom_site_occupancy
  N   N1        1.0  0.8685980455843901  0.9477579587977962  0.6096057707171552  1.0000
  C   C1        1.0  0.7905499268096037  0.9327526688482823  0.6019700179749663  1.0000
  C   C2        1.0  0.6936897333082348  0.9141324815550003  0.5924945951104104  1.0000
  C   C3        1.0  0.6562497261047445  0.8378129750512826  0.5536570852852085  1.0000
  C   C4        1.0  0.5595336389497495  0.8378130585522605  0.5536567842613518  1.0000
  C   C5        1.0  0.5222315573101977  0.914132571799964  0.5924941368927266  1.0000
  C   C6        1.0  0.4254049928513592  0.9327528122990806  0.601969786992267  1.0000
  N   N2        1.0  0.3473840028920944  0.9477580288284342  0.609605671879174  1.0000
  S   S1        1.0  0.6080218207479918  0.9818429405467302  0.6269509878700554  1.0000
  H   H1        1.0  0.6972875959133059  0.7838407192852646  0.5261918301454986  1.0000
  H   H2        1.0  0.5183982449934404  0.7838409107465996  0.5261911917213586  1.0000
  C   C7        1.0  0.10791069395123018  0.6934149746643012  0.6098932121172298  1.0000
  C   C8        1.0  0.15370571540721056  0.619914254026171  0.6658712449222506  1.0000
  C   C9        1.0  0.11219998345594327  0.5380333840176739  0.6690354917769534  1.0000
  C   C10       1.0  0.0244411498732886  0.5281374936296492  0.6151733625803555  1.0000
  O   O1        1.0  0.9801181930875227  0.44723370926082456  0.6178695054390272  1.0000
  C   C11       1.0  0.02451334596496269  0.3667030667123111  0.6148152706480121  1.0000
  C   C12       1.0  0.9823897302408968  0.2930734286258987  0.6745371496174135  1.0000
  C   C13       1.0  0.023855258555318004  0.211453143455174  0.6725204378041583  1.0000
  C   C14       1.0  0.10808017385496657  0.2020943171100235  0.6093291234664142  1.0000
  C   C15       1.0  0.14963760983877972  0.27599349311484084  0.5476407912301848  1.0000
  C   C16       1.0  0.10802622806433157  0.35752794230996837  0.5498537904048194  1.0000
  C   C17       1.0  0.978169267587239  0.6013938955297232  0.5611814500797572  1.0000
  C   C18       1.0  0.019512333489011935  0.6833533281543084  0.5578420879861343  1.0000
  H   H3        1.0  0.2703827690892431  0.8482608608876466  0.6568902266743526  1.0000
  H   H4        1.0  0.22143072564167032  0.6256353605799032  0.7078674108625556  1.0000
  H   H5        1.0  0.1480129862491777  0.48276417719960685  0.7150934270154328  1.0000
  H   H6        1.0  0.9174250631160011  0.2992294243521909  0.7234327420560005  1.0000
  H   H7        1.0  0.9898491574419431  0.15576273257584  0.7203368354038882  1.0000
  H   H8        1.0  0.13936051128368393  0.9833241312183603  0.6676483838032323  1.0000
  H   H9        1.0  0.2140625827709412  0.27079116223750793  0.4970887140395348  1.0000
  H   H10       1.0  0.14032985672495935  0.4130802921729206  0.4993804934308608  1.0000
  H   H11       1.0  0.9100186706700226  0.5946840898007594  0.5209112865424121  1.0000
  H   H12       1.0  0.9822149422296806  0.7387721169242346  0.5146547046674104  1.0000
  C   C19       1.0  0.10755836931967974  0.9477205692780034  0.23973019387946892  1.0000
  C   C20       1.0  0.0248739823048818  0.9412723379074733  0.17218831348107044  1.0000
  N   N3        1.0  0.027409396053591273  0.9414699637200702  0.0442751112951214  1.0000
  C   C21       1.0  0.1084324946474495  0.947788716091242  0.9794921482850012  1.0000
  C   C22       1.0  0.1911741289776458  0.9542417927855972  0.047070764804511  1.0000
  N   N4        1.0  0.18863325221347077  0.9540436112223348  0.17497960103411092  1.0000
  H   H13       1.0  0.025480105283141045  0.9413157151060928  0.5413597820870971  1.0000
  H   H14       1.0  0.9589630285067505  0.9361320596199358  0.22014681536454425  1.0000
  H   H15       1.0  0.021564372758633436  0.941009959738954  0.6822586133526953  1.0000
  H   H16       1.0  0.2570879020706218  0.9593821207483422  0.9991006288398897  1.0000
  Zn  Zn1       1.0  0.006765342268654436  0.9477556533215192  0.6096130242630676  1.0000
  Zn  Zn2       1.0  0.2092167123576305  0.9477532217073181  0.6096087634992844  1.0000
  C   C23       1.0  0.1082640841957869  0.9443254041900134  0.8396651441441492  1.0000
  C   C24       1.0  0.10772018170342855  0.9511845636537373  0.3795567659866683  1.0000
  C   C25       1.0  0.10803747911668093  0.10594263088225381  0.6044164925261173  1.0000
  C   C26       1.0  0.10794671743261432  0.7895662963697031  0.6148054859130037  1.0000
  O   O2        1.0  0.1846037260229838  0.9523424104224437  0.42648222816967296  1.0000
  O   O3        1.0  0.18503644472173358  0.9431650584513179  0.7927360862798314  1.0000
  O   O4        1.0  0.18485242410729213  0.07367301306719877  0.6027711346982038  1.0000
  O   O5        1.0  0.18478767744495173  0.8218344619945374  0.6164470853044204  1.0000
  O   O6        1.0  0.031194308094609546  0.07367441303607185  0.6027747024527593  1.0000
  O   O7        1.0  0.03137832897224668  0.9431674990137568  0.7927395857209112  1.0000
  O   O8        1.0  0.03094560853538496  0.9523448206632046  0.42648421327740027  1.0000
  O   O9        1.0  0.03112956006310231  0.8218368660490956  0.616449164853855  1.0000
