data_image0
_chemical_formula_structural       NC8Br2C7NH8C6H6C12H10Zn2C4O8
_chemical_formula_sum              "N2 C37 Br2 H24 Zn2 O8"
_cell_length_a       18.47481811020543
_cell_length_b       10.681118228259551
_cell_length_c       13.024585202197207
_cell_angle_alpha    85.80459198147678
_cell_angle_beta     93.98418679014542
_cell_angle_gamma    90.06386495197607

_space_group_name_H-M_alt    "P 1"
_space_group_IT_number       1

loop_
  _space_group_symop_operation_xyz
  'x, y, z'

loop_
  _atom_site_type_symbol
  _atom_site_label
  _atom_site_symmetry_multiplicity
  _atom_site_fract_x
  _atom_site_fract_y
  _atom_site_fract_z
  _atom_site_occupancy
  N   N1        1.0  0.6258265396895815  0.36614290806264843  0.8645993043976733  1.0000
  C   C1        1.0  0.5762191675894742  0.3732486088344491  0.913474385355327  1.0000
  C   C2        1.0  0.5145121697557468  0.3820866737255147  0.9742690871871658  1.0000
  C   C3        1.0  0.5139151231630632  0.316057633331879  0.0709228998743684  1.0000
  C   C4        1.0  0.45411451841574674  0.3246112516117621  0.13025463814107097  1.0000
  C   C5        1.0  0.3929901294160267  0.39775452778420317  0.09287951479134293  1.0000
  C   C6        1.0  0.3955248274695644  0.46673535340512134  0.9965390162791614  1.0000
  C   C7        1.0  0.45535824497559146  0.4579437335953556  0.9374469458806758  1.0000
  C   C8        1.0  0.3277436219057602  0.41326879762903324  0.15711451929994233  1.0000
  Br  Br1       1.0  0.3209897436591438  0.2832855611592928  0.26952866468100123  1.0000
  Br  Br2       1.0  0.3431767024647744  0.5715020633264933  0.22151432278998226  1.0000
  C   C9        1.0  0.2561073836052317  0.40798426814159  0.09117517908255766  1.0000
  C   C10       1.0  0.1973924330356743  0.48897069105692564  0.10287105181858491  1.0000
  C   C11       1.0  0.1317817495116531  0.47861170506124134  0.043840156702985245  1.0000
  C   C12       1.0  0.12299332802183678  0.3859182794630305  0.9736307600991527  1.0000
  C   C13       1.0  0.179834105135442  0.30253149975962046  0.9633394450031141  1.0000
  C   C14       1.0  0.2454583322153641  0.3125900093730567  0.0222204817469166  1.0000
  C   C15       1.0  0.0553318637626646  0.3753735377955105  0.9131203350977952  1.0000
  N   N2        1.0  0.0009375605611217148  0.36689646563345457  0.864473797140904  1.0000
  H   H1        1.0  0.5599703521460254  0.2584885644988526  0.10086746955380654  1.0000
  H   H2        1.0  0.45676282721806666  0.2743135479067409  0.20542416221818888  1.0000
  H   H3        1.0  0.3509308931193371  0.5277726036307113  0.9669325168595411  1.0000
  H   H4        1.0  0.4556052170480611  0.5109074058890377  0.863275993645657  1.0000
  H   H5        1.0  0.20113161977632568  0.5600608311294175  0.15781595787607947  1.0000
  H   H6        1.0  0.08767342815715098  0.5425182026827653  0.05354590463970077  1.0000
  H   H7        1.0  0.17333778691598878  0.2292252106460677  0.9102057653777091  1.0000
  H   H8        1.0  0.2881929825636811  0.24550071781729346  0.013960818799803485  1.0000
  C   C16       1.0  0.8133857367556544  0.9987697040507225  0.8645409630291361  1.0000
  C   C17       1.0  0.8491725178432311  0.924734797793433  0.9462610111202073  1.0000
  C   C18       1.0  0.8491725044673398  0.7938525593567661  0.9462609640721498  1.0000
  C   C19       1.0  0.8133857267872385  0.7342601082087733  0.8645410075215199  1.0000
  C   C20       1.0  0.7776285643813291  0.8082840100792279  0.7828884907451281  1.0000
  C   C21       1.0  0.7776285774616388  0.939176268412078  0.7828885325103387  1.0000
  H   H9        1.0  0.7771954396395763  0.3047820700064079  0.781900293918111  1.0000
  H   H10       1.0  0.8772239266311539  0.9678853789894926  0.010317009697970338  1.0000
  H   H11       1.0  0.8772238367482004  0.7393813501227774  0.010316991548773306  1.0000
  H   H12       1.0  0.7495734975038102  0.7651789229865759  0.7188241284311354  1.0000
  H   H13       1.0  0.7495734781203166  0.9936033619399138  0.7188241200692809  1.0000
  H   H14       1.0  0.7771956924605593  0.4428527182402701  0.781900015437262  1.0000
  C   C22       1.0  0.7985498117140869  0.3649820867338396  0.5623270666161608  1.0000
  C   C23       1.0  0.7825485012255029  0.4650212810925169  0.48790263699978004  1.0000
  C   C24       1.0  0.8072784961092656  0.46315364859058494  0.3890142614893548  1.0000
  C   C25       1.0  0.8479505514430847  0.3609110606214285  0.3625534024388837  1.0000
  C   C26       1.0  0.8646394155840393  0.26158579446338903  0.4369044160351485  1.0000
  C   C27       1.0  0.8399458596589164  0.26334840501281986  0.5358360430320095  1.0000
  C   C28       1.0  0.8751705369400335  0.359809950778778  0.2583442217375962  1.0000
  C   C29       1.0  0.9506590985462275  0.3558787377944559  0.25063674666033653  1.0000
  C   C30       1.0  0.9797554629231695  0.36257795116420843  0.1544026810970225  1.0000
  C   C31       1.0  0.9339747380767129  0.37355363190940905  0.06456941609033784  1.0000
  C   C32       1.0  0.8588580749806544  0.3763147014348296  0.07053414164433347  1.0000
  C   C33       1.0  0.8282216143528198  0.368047702726732  0.1667548715462206  1.0000
  H   H15       1.0  0.7710920586840174  0.26714303654180616  0.8122786721958986  1.0000
  H   H16       1.0  0.7510520901919872  0.544899884592905  0.5060959680406345  1.0000
  H   H17       1.0  0.7948179151434119  0.5415269712439108  0.3330210259330638  1.0000
  H   H18       1.0  0.8964392883554367  0.1823548763720293  0.41802962213373385  1.0000
  H   H19       1.0  0.8533420604236718  0.1851099399684577  0.5915108190376199  1.0000
  H   H20       1.0  0.9872256945717875  0.34984143007814295  0.319571358570069  1.0000
  H   H21       1.0  0.03797815924787562  0.36021069040426035  0.14950199900489358  1.0000
  H   H22       1.0  0.9567144726827973  0.379121688984996  0.9899948602572077  1.0000
  H   H23       1.0  0.824584347077883  0.3826257230716878  0.9994127834078901  1.0000
  H   H24       1.0  0.6500302842728477  0.4113351057287265  0.08227998054640184  1.0000
  Zn  Zn1       1.0  0.7340757693958936  0.36635704401821023  0.8645690194571227  1.0000
  Zn  Zn2       1.0  0.892688731748856  0.36667211828281226  0.864512479664376  1.0000
  C   C34       1.0  0.8226114158097522  0.3624793020371353  0.052505099860963744  1.0000
  C   C35       1.0  0.8041548223422412  0.3705514443202873  0.6765764996533781  1.0000
  C   C36       1.0  0.8131806726714383  0.5952159328101165  0.8604399605457735  1.0000
  C   C37       1.0  0.8135855140505793  0.13781330913485057  0.8686416938555828  1.0000
  O   O1        1.0  0.8662287077061425  0.3725346772300475  0.714898196505114  1.0000
  O   O2        1.0  0.8809210842743864  0.3607342569653009  0.014140194362269319  1.0000
  O   O3        1.0  0.8733048810267017  0.5486720334865249  0.859046235761854  1.0000
  O   O4        1.0  0.873844853041923  0.18459690916840252  0.8699920779607471  1.0000
  O   O5        1.0  0.7529195939757415  0.5484322530264365  0.8590894211746327  1.0000
  O   O6        1.0  0.7605357945263168  0.3604959808114845  0.01418332490191443  1.0000
  O   O7        1.0  0.7458433572650048  0.3722963511608737  0.7149400897204559  1.0000
  O   O8        1.0  0.7534595063856041  0.1843585745334662  0.870034048334752  1.0000
