data_image0
_chemical_formula_structural       NC9NC3SH6C8H4C9H10Zn2C4O8
_chemical_formula_sum              "N2 C33 S1 H20 Zn2 O8"
_cell_length_a       16.77567553997237
_cell_length_b       9.27514070457351
_cell_length_c       9.272679976505533
_cell_angle_alpha    86.15343735439215
_cell_angle_beta     90.7858477527611
_cell_angle_gamma    91.48491386358626

_space_group_name_H-M_alt    "P 1"
_space_group_IT_number       1

loop_
  _space_group_symop_operation_xyz
  'x, y, z'

loop_
  _atom_site_type_symbol
  _atom_site_label
  _atom_site_symmetry_multiplicity
  _atom_site_fract_x
  _atom_site_fract_y
  _atom_site_fract_z
  _atom_site_occupancy
  N   N1        1.0  0.7537447415895225  0.5860624882250793  0.4214187621201515  1.0000
  C   C1        1.0  0.6994898505365232  0.6412220265695274  0.46774483414576257  1.0000
  C   C2        1.0  0.6321586968511571  0.7096713627872744  0.5252319465809663  1.0000
  C   C3        1.0  0.6352653242195729  0.808364833625449  0.6310149140748122  1.0000
  C   C4        1.0  0.5600413571007209  0.8569306634823648  0.6661245858768132  1.0000
  C   C5        1.0  0.49738850450726774  0.7962667755095816  0.5875727711777708  1.0000
  C   C6        1.0  0.4111109355661695  0.8253114849744811  0.5996947684682441  1.0000
  C   C7        1.0  0.35353506258592804  0.7363945208767433  0.5347554513613548  1.0000
  C   C8        1.0  0.27208980831181073  0.7631969120749504  0.5456986026162145  1.0000
  C   C9        1.0  0.2138234201847005  0.6713036629560072  0.4792024973036355  1.0000
  N   N2        1.0  0.1669943807671267  0.5974346616861048  0.4257494523876795  1.0000
  C   C10       1.0  0.2473919067658967  0.8792629923298151  0.6214030986863819  1.0000
  C   C11       1.0  0.3038751525584182  0.9683521003311341  0.6858304032297362  1.0000
  C   C12       1.0  0.3851663397540295  0.9419557980481947  0.6752153591095731  1.0000
  S   S1        1.0  0.5368859709732133  0.681972441762358  0.4750259356131803  1.0000
  H   H1        1.0  0.6900688695000117  0.8441653672174573  0.6819190725772295  1.0000
  H   H2        1.0  0.5525263489939122  0.9330072166871289  0.7479020317103469  1.0000
  H   H3        1.0  0.3715873816439549  0.6456315163105089  0.47629255151113314  1.0000
  H   H4        1.0  0.18456678233446908  0.9009465529552784  0.6304385182088268  1.0000
  H   H5        1.0  0.2846369112923424  0.058433082974633344  0.743939076338179  1.0000
  H   H6        1.0  0.42721215569573534  0.014149976282893838  0.7250932148859083  1.0000
  C   C13       1.0  0.957947189262907  0.16823303123754108  0.4225505014339239  1.0000
  C   C14       1.0  0.9688253586748772  0.25091069574420555  0.29115300509826003  1.0000
  C   C15       1.0  0.9866773920912216  0.18506557765037113  0.1649957658622947  1.0000
  C   C16       1.0  0.9940806208737109  0.035361556132857505  0.16781410878532974  1.0000
  C   C17       1.0  0.982172072780383  0.9510555890011958  0.29683799868754646  1.0000
  C   C18       1.0  0.9627995284042894  0.015253360250911294  0.42463030505438026  1.0000
  C   C19       1.0  0.013004982707894186  0.9677624610163119  0.03763832149021785  1.0000
  C   C20       1.0  0.02885008893290575  0.9111498783536376  0.9286532846828702  1.0000
  H   H7        1.0  0.9723583655742457  0.24799979244500106  0.7769448862271384  1.0000
  H   H8        1.0  0.9954883368018991  0.2512429429849674  0.06542188535631754  1.0000
  H   H9        1.0  0.9694426240482895  0.718840143363748  0.6633747685172551  1.0000
  H   H10       1.0  0.042758689488598955  0.8614542232084048  0.8329873087526809  1.0000
  C   C21       1.0  0.958737180914057  0.5882931352079428  0.00020240927990466425  1.0000
  C   C22       1.0  0.012414762450822184  0.5005733861669233  0.08081745860788003  1.0000
  C   C23       1.0  0.07008600190438408  0.4246486464449588  0.01263512297808033  1.0000
  C   C24       1.0  0.07603024876463471  0.43394823423461976  0.8618570535987975  1.0000
  C   C25       1.0  0.02138434142435464  0.5196842968686795  0.7798428912727853  1.0000
  C   C26       1.0  0.9620095450321776  0.5951932763638081  0.8469784127198285  1.0000
  C   C27       1.0  0.14108368287549913  0.3488747637805327  0.7961824444036751  1.0000
  C   C28       1.0  0.12171895954063872  0.28235067851339046  0.6537215402504066  1.0000
  C   C29       1.0  0.17854373518826505  0.413029609605682  0.6568079042860899  1.0000
  H   H11       1.0  0.8392349954620014  0.68249978328247  0.2721345320656349  1.0000
  H   H12       1.0  0.011110774021512395  0.49326377926778037  0.1978609690783592  1.0000
  H   H13       1.0  0.11098309143842  0.3591347757245389  0.07853646138172629  1.0000
  H   H14       1.0  0.023203707785475425  0.5259680666003335  0.6630979885221975  1.0000
  H   H15       1.0  0.7817583191299114  0.7258885036693035  0.7307117166951804  1.0000
  H   H16       1.0  0.18238694217874074  0.2851437529638263  0.8686461542997405  1.0000
  H   H17       1.0  0.06263176623439204  0.3053319400431749  0.6034796767589747  1.0000
  H   H18       1.0  0.15209580455602678  0.17937657480262884  0.6394971767618072  1.0000
  H   H19       1.0  0.15401243075488757  0.5153261563555629  0.6083243811067431  1.0000
  H   H20       1.0  0.24214143339660898  0.3864224246226844  0.644383630788582  1.0000
  Zn  Zn1       1.0  0.8729996737975751  0.5893404692114792  0.4226768310844691  1.0000
  Zn  Zn2       1.0  0.04773942195090486  0.5941450120007157  0.424503194727758  1.0000
  C   C30       1.0  0.9613563130242059  0.5881434906099541  0.6869054482701746  1.0000
  C   C31       1.0  0.9593847018484087  0.5953438639316215  0.16027474346464055  1.0000
  C   C32       1.0  0.961856041418376  0.8551015568597137  0.41849173574267945  1.0000
  C   C33       1.0  0.9588849041984222  0.3283840639301474  0.4286885279816835  1.0000
  O   O1        1.0  0.025914803504905277  0.5995271599619649  0.21468956113126642  1.0000
  O   O2        1.0  0.027449629176781176  0.5876056400090466  0.6338763806419405  1.0000
  O   O3        1.0  0.027852278039959495  0.8031776422885666  0.4171304030431271  1.0000
  O   O4        1.0  0.02551209465622373  0.38395516547900477  0.43143543002883145  1.0000
  O   O5        1.0  0.8952269414621356  0.7995303140951442  0.41574459515256734  1.0000
  O   O6        1.0  0.8948243022246527  0.5839600439292914  0.6324905001310044  1.0000
  O   O7        1.0  0.8932894696190191  0.5958814995010262  0.21330194706234912  1.0000
  O   O8        1.0  0.8928867611257203  0.3803094955834596  0.4300479240303342  1.0000
