data_image0
_chemical_formula_structural       NC9NC3OH6C6NCOCH9C6OCH7Zn2C4O8
_chemical_formula_sum              "N3 C31 O11 H22 Zn2"
_cell_length_a       15.78231758774541
_cell_length_b       10.300268703208218
_cell_length_c       9.273891588657152
_cell_angle_alpha    86.07587478402297
_cell_angle_beta     89.76748324947235
_cell_angle_gamma    89.61162997741629

_space_group_name_H-M_alt    "P 1"
_space_group_IT_number       1

loop_
  _space_group_symop_operation_xyz
  'x, y, z'

loop_
  _atom_site_type_symbol
  _atom_site_label
  _atom_site_symmetry_multiplicity
  _atom_site_fract_x
  _atom_site_fract_y
  _atom_site_fract_z
  _atom_site_occupancy
  N   N1        1.0  0.802747355967349  0.4002466991505264  0.41278318926240964  1.0000
  C   C1        1.0  0.7541471139149022  0.31840561352802843  0.43950900394421893  1.0000
  C   C2        1.0  0.6938081267336856  0.21682093616902476  0.4726826251195535  1.0000
  C   C3        1.0  0.7133646581460086  0.08921349226431817  0.514265904709631  1.0000
  C   C4        1.0  0.636582408003168  0.0273706046790394  0.5345015318889457  1.0000
  C   C5        1.0  0.5748800985395978  0.12181509149291857  0.5037709615462573  1.0000
  C   C6        1.0  0.48177429872551153  0.10435458025451072  0.5095544229211619  1.0000
  C   C7        1.0  0.42811860955023956  0.21141774955422704  0.47453430571114136  1.0000
  C   C8        1.0  0.33989994701364007  0.19710061378277063  0.47928455282882365  1.0000
  C   C9        1.0  0.28555039196849025  0.30727876686265043  0.4432363546766516  1.0000
  N   N2        1.0  0.2418662372881838  0.39584777536564486  0.414256825208724  1.0000
  C   C10       1.0  0.3046555459550043  0.0755609786019722  0.5191092948231967  1.0000
  C   C11       1.0  0.35738047165521614  0.9687191988478238  0.5540618447356037  1.0000
  C   C12       1.0  0.44541314205587124  0.9826430084174773  0.5494406828877998  1.0000
  O   O1        1.0  0.6114317227861242  0.23374320244549393  0.4672430742313996  1.0000
  H   H1        1.0  0.7757894840596399  0.04617922389463547  0.5282328418226803  1.0000
  H   H2        1.0  0.6277656937145427  0.9256837031887826  0.5676550538050594  1.0000
  H   H3        1.0  0.45480325776498026  0.305997093718698  0.44353835457684504  1.0000
  H   H4        1.0  0.2365289497262996  0.06343508939491803  0.5231301514896994  1.0000
  H   H5        1.0  0.3299660475120314  0.8747864520000602  0.584846361597737  1.0000
  H   H6        1.0  0.48442885795208546  0.8980168693967894  0.577134720212169  1.0000
  C   C13       1.0  0.02239689291424994  0.016698767682731697  0.41352881738118785  1.0000
  C   C14       1.0  0.03717316357447273  0.024719544652866077  0.26374724616830136  1.0000
  C   C15       1.0  0.045773764752605514  0.9114517693273887  0.18858398933863252  1.0000
  C   C16       1.0  0.03698136389056783  0.7895622393039513  0.26378256085017404  1.0000
  C   C17       1.0  0.02222473172328597  0.7793857754338736  0.4135236544734986  1.0000
  C   C18       1.0  0.015329090539495153  0.8935470887558639  0.48769488119411153  1.0000
  N   N3        1.0  0.059583977129681324  0.918083640436051  0.034867409660438886  1.0000
  C   C19       1.0  0.10958055079077028  0.01606123749023225  0.9575860602747119  1.0000
  O   O2        1.0  0.1572053601546166  0.08912033656261475  0.024305712477691085  1.0000
  C   C20       1.0  0.11014540179682131  0.02562975340537686  0.7961227819001845  1.0000
  H   H7        1.0  0.01554799072387757  0.34110754602395676  0.4701332201939934  1.0000
  H   H8        1.0  0.04031644071091242  0.11906090582438411  0.20512046679711338  1.0000
  H   H9        1.0  0.042434741790795316  0.702666028805623  0.20479987129122446  1.0000
  H   H10       1.0  0.0039556662886748315  0.8865514083359637  0.603223274786719  1.0000
  H   H11       1.0  0.015381391949574654  0.4481555305350362  0.4699193694075523  1.0000
  H   H12       1.0  0.03643529659180087  0.8424209858601134  0.9768754901296216  1.0000
  H   H13       1.0  0.04543004397446038  0.008910985227014391  0.7550409829489109  1.0000
  H   H14       1.0  0.13128987323198527  0.1237364144761186  0.7541648369223518  1.0000
  H   H15       1.0  0.15400987094320984  0.9511424707294501  0.7565924429655952  1.0000
  C   C21       1.0  0.023699682619161545  0.3945890560406841  0.9902555931663312  1.0000
  C   C22       1.0  0.09307695588661108  0.44874454370394523  0.05906178600861601  1.0000
  C   C23       1.0  0.15764582883305225  0.5126452278228713  0.9794683384141495  1.0000
  C   C24       1.0  0.15306829819456347  0.5227135124509783  0.8280123039457348  1.0000
  C   C25       1.0  0.08547133340977055  0.4677538803149708  0.757869892412974  1.0000
  C   C26       1.0  0.020921937473546964  0.401495417036628  0.8367968708755176  1.0000
  O   O3        1.0  0.22470947555409293  0.5652250015720417  0.05489968434108828  1.0000
  C   C27       1.0  0.2944685139093679  0.6328697154885454  0.9880570061331142  1.0000
  H   H16       1.0  0.8221764658818912  0.31684773890193507  0.10059702398113557  1.0000
  H   H17       1.0  0.20186703268119366  0.5718133690251901  0.7632536332835799  1.0000
  H   H18       1.0  0.0847861380579204  0.4744536210926231  0.6407863767230247  1.0000
  H   H19       1.0  0.8865339724799188  0.3439945715713828  0.5609035864608823  1.0000
  H   H20       1.0  0.2717041176912476  0.7209760903727884  0.9235845068912916  1.0000
  H   H21       1.0  0.32981267095201194  0.5680656215351108  0.9177633351561615  1.0000
  H   H22       1.0  0.33783492280331684  0.6634755305046796  0.07304589726349597  1.0000
  Zn  Zn1       1.0  0.9294675494748835  0.3989738638287849  0.41321676557572645  1.0000
  Zn  Zn2       1.0  0.11514597901796475  0.39711010791303525  0.41383503172144936  1.0000
  C   C28       1.0  0.02144628232099709  0.3950166228029679  0.6767824897962641  1.0000
  C   C29       1.0  0.023169272940489094  0.40106896827267047  0.15026945571273534  1.0000
  C   C30       1.0  0.022271771060671446  0.635174861429322  0.40778085041737433  1.0000
  C   C31       1.0  0.022343720941750723  0.16090917069023677  0.4192711717371952  1.0000
  O   O4        1.0  0.0934552602260561  0.4025307349175882  0.20420619854641167  1.0000
  O   O5        1.0  0.09208592833481072  0.3921393254872714  0.6233145817468801  1.0000
  O   O6        1.0  0.0927515661256584  0.5860701621554363  0.4060938515451312  1.0000
  O   O7        1.0  0.09278955942825884  0.20859990729341726  0.42142682046371616  1.0000
  O   O8        1.0  0.9518239057016786  0.5874840650857627  0.40562497661489405  1.0000
  O   O9        1.0  0.9511582678069845  0.3935547880110386  0.6228456299525067  1.0000
  O   O10       1.0  0.9525276054510812  0.4039461380491398  0.2037355137977511  1.0000
  O   O11       1.0  0.9518619042973225  0.21001530201833526  0.4209562437809349  1.0000
