data_image0
_chemical_formula_structural       NC9NC3OH6C6NO2H4C6SCNH5Zn2C4O8
_chemical_formula_sum              "N4 C29 O11 H15 S1 Zn2"
_cell_length_a       15.78231758774541
_cell_length_b       9.273392599741051
_cell_length_c       10.302218930750287
_cell_angle_alpha    85.67519561885129
_cell_angle_beta     90.10197945546608
_cell_angle_gamma    89.0365174922554

_space_group_name_H-M_alt    "P 1"
_space_group_IT_number       1

loop_
  _space_group_symop_operation_xyz
  'x, y, z'

loop_
  _atom_site_type_symbol
  _atom_site_label
  _atom_site_symmetry_multiplicity
  _atom_site_fract_x
  _atom_site_fract_y
  _atom_site_fract_z
  _atom_site_occupancy
  N   N1        1.0  0.7879885152596806  0.569869329564362  0.573287298617768  1.0000
  C   C1        1.0  0.740018267280934  0.478723326298117  0.5971857532027103  1.0000
  C   C2        1.0  0.680461257227992  0.36558898114322336  0.6268498946646894  1.0000
  C   C3        1.0  0.7009997721976652  0.22347402657299395  0.6640334465709736  1.0000
  C   C4        1.0  0.6246937167511188  0.15459954298921375  0.6821285841154423  1.0000
  C   C5        1.0  0.5622647859981078  0.25978086687527346  0.6546497701340874  1.0000
  C   C6        1.0  0.4692936806573389  0.24033443117215383  0.6598219264091538  1.0000
  C   C7        1.0  0.41481363979787206  0.35957067500212464  0.6285062554722829  1.0000
  C   C8        1.0  0.3267054510690421  0.34362506265767156  0.6327544585471361  1.0000
  C   C9        1.0  0.2715075276508535  0.46633054833519694  0.6005193975284495  1.0000
  N   N2        1.0  0.22714138929596248  0.5649699278904121  0.574605280134797  1.0000
  C   C10       1.0  0.292397110257038  0.20826573969702292  0.6683669729306327  1.0000
  C   C11       1.0  0.34594470009243794  0.08927601266774897  0.6996222556169049  1.0000
  C   C12       1.0  0.4338699266812016  0.10478357369170556  0.6954894859143697  1.0000
  O   O1        1.0  0.5979548943455876  0.38443442536291195  0.6219863687185687  1.0000
  H   H1        1.0  0.7637555624224376  0.1755477747133227  0.6765222370998107  1.0000
  H   H2        1.0  0.6166595781109014  0.04135184459798036  0.7117744019414376  1.0000
  H   H3        1.0  0.4407698489853679  0.4649042302912934  0.6007886842376176  1.0000
  H   H4        1.0  0.22436407143059278  0.1947606350591309  0.671962858115098  1.0000
  H   H5        1.0  0.31925373662011886  0.9846625721521518  0.7271507586406216  1.0000
  H   H6        1.0  0.47353728226957686  0.010535328748722641  0.7202541187650928  1.0000
  C   C13       1.0  0.0101519719334615  0.14386225383951445  0.5731376033937055  1.0000
  C   C14       1.0  0.9993362786229831  0.22733841233184182  0.4545037502255416  1.0000
  C   C15       1.0  0.9810434052158611  0.16245550636190403  0.3401509799959874  1.0000
  C   C16       1.0  0.9729607745138442  0.012129555086543667  0.3412420537849967  1.0000
  C   C17       1.0  0.9850980716814651  0.9274703532860371  0.4589745012009965  1.0000
  C   C18       1.0  0.004986089790330659  0.9909657992408412  0.5747661614608583  1.0000
  N   N3        1.0  0.953348531529856  0.9458442355640593  0.2230782792838419  1.0000
  O   O2        1.0  0.942205856955021  0.029075507460024626  0.10777907300287226  1.0000
  O   O3        1.0  0.9458865347138627  0.8119942182151652  0.2232631593674348  1.0000
  H   H7        1.0  0.9929617923825717  0.22051008748522083  0.8917429587229921  1.0000
  H   H8        1.0  0.9723664080594254  0.23047633336692552  0.2508908704403341  1.0000
  H   H9        1.0  0.9810053332728406  0.8109137943750822  0.45988641170767086  1.0000
  H   H10       1.0  0.9962991780156178  0.6929614107137011  0.7901014277196236  1.0000
  C   C19       1.0  0.007489610428961014  0.5674824821325786  0.1926766214186093  1.0000
  C   C20       1.0  0.08770851683714381  0.4993868921564586  0.19656562716550585  1.0000
  C   C21       1.0  0.127590448395413  0.4650495375391062  0.08152256256980683  1.0000
  C   C22       1.0  0.08791622189455994  0.4992059511743374  0.9614116569770879  1.0000
  C   C23       1.0  0.00764843403141446  0.5673455911531613  0.9552271666487817  1.0000
  C   C24       1.0  0.9678618265597394  0.6010571259875521  0.07142877792573055  1.0000
  S   S1        1.0  0.23013251968769521  0.37868421802566093  0.0879269256743116  1.0000
  C   C25       1.0  0.18688119675925075  0.20392359534422932  0.09971978910471636  1.0000
  N   N4        1.0  0.1585006296628266  0.08936020547383428  0.10745093646226533  1.0000
  H   H11       1.0  0.9769716134062283  0.5934653051970618  0.5185268396916816  1.0000
  H   H12       1.0  0.11949468909808098  0.47249173976704895  0.2886813499454348  1.0000
  H   H13       1.0  0.11984476135136846  0.4721867071407777  0.8732603487184782  1.0000
  H   H14       1.0  0.9059919875784744  0.6535553387335464  0.06758264524616231  1.0000
  H   H15       1.0  0.8563917413770906  0.6959202540916585  0.7363430562774096  1.0000
  Zn  Zn1       1.0  0.9147185698928044  0.5684516140017719  0.5736751238332127  1.0000
  Zn  Zn2       1.0  0.10041138017025242  0.566375869525398  0.5742280459996625  1.0000
  C   C26       1.0  0.007651574295656432  0.5616254885541387  0.8110777361227275  1.0000
  C   C27       1.0  0.007480392455442517  0.5732037921727404  0.33682557068199453  1.0000
  C   C28       1.0  0.005957110247780224  0.830846201886172  0.5692844375990247  1.0000
  C   C29       1.0  0.009174803721543778  0.3039813466276555  0.5786189349070763  1.0000
  O   O4        1.0  0.07794679094693661  0.5743298893697149  0.38541309385473044  1.0000
  O   O5        1.0  0.07812172872330775  0.5589228612931705  0.7629094922344215  1.0000
  O   O6        1.0  0.07675247789449563  0.7763220024461052  0.5676596930034605  1.0000
  O   O7        1.0  0.07931597832817139  0.35693075926050577  0.5806627955660943  1.0000
  O   O8        1.0  0.935813908367032  0.7778967249765858  0.5672403740712693  1.0000
  O   O9        1.0  0.937183148609765  0.5604993167466235  0.7624901074053403  1.0000
  O   O10       1.0  0.937008210871108  0.5759062948403957  0.3849921479118805  1.0000
  O   O11       1.0  0.9383773983320665  0.3585071543973817  0.5802419469473301  1.0000
