data_image0
_chemical_formula_structural       NC8OCOC5NC2H8C14H9C12H9Zn2C4O8
_chemical_formula_sum              "N2 C46 O10 H26 Zn2"
_cell_length_a       21.308487190773796
_cell_length_b       17.567807274406366
_cell_length_c       14.994061290378351
_cell_angle_alpha    85.5564877003982
_cell_angle_beta     89.33175463981287
_cell_angle_gamma    90.13054757595658

_space_group_name_H-M_alt    "P 1"
_space_group_IT_number       1

loop_
  _space_group_symop_operation_xyz
  'x, y, z'

loop_
  _atom_site_type_symbol
  _atom_site_label
  _atom_site_symmetry_multiplicity
  _atom_site_fract_x
  _atom_site_fract_y
  _atom_site_fract_z
  _atom_site_occupancy
  N   N1        1.0  0.5907947933654693  0.8359089518931739  0.006068817735104375  1.0000
  C   C1        1.0  0.5376952541301607  0.8470523322210014  0.015295232640234808  1.0000
  C   C2        1.0  0.4716448630757389  0.8609136807921253  0.026771527402094316  1.0000
  C   C3        1.0  0.4490705551983692  0.8886049035470548  0.10603758925422352  1.0000
  C   C4        1.0  0.38491250519882775  0.9020001698028215  0.11728498451204283  1.0000
  C   C5        1.0  0.3424924521273235  0.8883829680196562  0.049059178200069  1.0000
  C   C6        1.0  0.3656010010911494  0.8597832307597156  0.9699435029730825  1.0000
  C   C7        1.0  0.42977648802740664  0.8463804418753258  0.9588722645066992  1.0000
  C   C8        1.0  0.2744352339272235  0.9021482975874268  0.06222801175116821  1.0000
  O   O1        1.0  0.2520759145696153  0.8990254204110965  0.14069425210636988  1.0000
  C   C9        1.0  0.23235288949415034  0.9221084386809854  0.9860749778221429  1.0000
  O   O2        1.0  0.2546997504008492  0.9577682983521782  0.9165759606341627  1.0000
  C   C10       1.0  0.1643080654052001  0.9037595197573889  0.9903930877678422  1.0000
  C   C11       1.0  0.12186546011343151  0.948897641123312  0.938360648160073  1.0000
  C   C12       1.0  0.05771910047601491  0.931808356618891  0.9412062820810443  1.0000
  C   C13       1.0  0.03517951799731921  0.8690949490065342  0.9955563707592914  1.0000
  C   C14       1.0  0.9691410905372084  0.8514907256957748  0.998360858415793  1.0000
  N   N2        1.0  0.9160512528834894  0.8373381523255469  0.0006157302807695577  1.0000
  C   C15       1.0  0.0770710248985239  0.8233240213486268  0.046835523167979815  1.0000
  C   C16       1.0  0.1412347545865319  0.8403336711282525  0.04414622712390115  1.0000
  H   H1        1.0  0.48103858014717554  0.899831158815268  0.1591687505395953  1.0000
  H   H2        1.0  0.3685121217461018  0.9236231637237077  0.17909683838901166  1.0000
  H   H3        1.0  0.3341054114633636  0.8465829422039128  0.9171343254713594  1.0000
  H   H4        1.0  0.44668354230872936  0.8243390081782282  0.8975234831358307  1.0000
  H   H5        1.0  0.1382387824472394  0.9978270735300271  0.895993508685363  1.0000
  H   H6        1.0  0.02573304801102921  0.967498051155926  0.9010055902552456  1.0000
  H   H7        1.0  0.06019123907211  0.7742589223700466  0.08858713760441166  1.0000
  H   H8        1.0  0.1727497845321839  0.8030936255089689  0.08305398982136841  1.0000
  C   C17       1.0  0.7534999177324975  0.6130336179682981  0.003352816725704204  1.0000
  C   C18       1.0  0.7054397978556218  0.5750566575851983  0.9608632466733558  1.0000
  C   C19       1.0  0.7055416580845616  0.49546062423691983  0.960825519167579  1.0000
  C   C20       1.0  0.7536056972051324  0.4528562474360525  0.003233788208509057  1.0000
  C   C21       1.0  0.8016442793793177  0.4901358319173122  0.04568648507752293  1.0000
  C   C22       1.0  0.8016581498739613  0.5697267151025116  0.045780517403756216  1.0000
  C   C23       1.0  0.7535944679021561  0.37093876252263724  0.0032612159318522447  1.0000
  C   C24       1.0  0.7535544183339834  0.30231244815430414  0.0032961106640595475  1.0000
  C   C25       1.0  0.7534792647800439  0.2203942456178923  0.0033355836117024995  1.0000
  C   C26       1.0  0.8102614217558737  0.18051603389917867  0.003535828721052405  1.0000
  C   C27       1.0  0.8102469330904241  0.10091679283361724  0.0035192141601864124  1.0000
  C   C28       1.0  0.7533521483885662  0.060207655429983006  0.0033393244302026845  1.0000
  C   C29       1.0  0.6964830199676971  0.10078584335579456  0.0031693865591793115  1.0000
  C   C30       1.0  0.6966225419728476  0.18038285766211692  0.003164828193915061  1.0000
  H   H9        1.0  0.6677481730557966  0.6067614246117966  0.9276446070712734  1.0000
  H   H10       1.0  0.6681459795249436  0.4671633523736849  0.9277352247617248  1.0000
  H   H11       1.0  0.8390585652435794  0.4576942821846192  0.07874293629153412  1.0000
  H   H12       1.0  0.839326164870794  0.5972943821578615  0.07905799596321728  1.0000
  H   H13       1.0  0.8545373508183103  0.2109404080953679  0.0036745681446473956  1.0000
  H   H14       1.0  0.8547654649298477  0.07134700685329931  0.0036289087276205655  1.0000
  H   H15       1.0  0.6519213987365882  0.07107849218954031  0.003064516397290109  1.0000
  H   H16       1.0  0.6524135193574242  0.2106957034424522  0.003051294217457093  1.0000
  H   H17       1.0  0.8106063533306657  0.8786871772085155  0.0032144146028003653  1.0000
  C   C31       1.0  0.7534525631274104  0.8366304353949133  0.7413789404711593  1.0000
  C   C32       1.0  0.7876952595674055  0.7815969256084042  0.6982118252063514  1.0000
  C   C33       1.0  0.7876626637909271  0.7815670150721978  0.6049942536551758  1.0000
  C   C34       1.0  0.7534415324308048  0.8365904242401758  0.552885506581538  1.0000
  C   C35       1.0  0.7192341170510056  0.8916199941182998  0.596151908536473  1.0000
  C   C36       1.0  0.7192239216545151  0.891611627409096  0.6893772251925177  1.0000
  C   C37       1.0  0.7534265978096205  0.8365848994771367  0.4538123909869506  1.0000
  C   C38       1.0  0.756962015039254  0.9055627833150125  0.3997976684178368  1.0000
  C   C39       1.0  0.7569744190022771  0.9055627911561315  0.3065730084121543  1.0000
  C   C40       1.0  0.7533994946780029  0.8366108327502844  0.26531325546967144  1.0000
  C   C41       1.0  0.7498364565114153  0.7676058297810655  0.31923145505027173  1.0000
  C   C42       1.0  0.7498769476387936  0.7676029664058015  0.41245188398459315  1.0000
  H   H18       1.0  0.8146932781988502  0.7385941877033618  0.73643138520279  1.0000
  H   H19       1.0  0.8151389476471346  0.7390458132298869  0.5735971801457995  1.0000
  H   H20       1.0  0.6917479680582229  0.9341349183921926  0.557951700319637  1.0000
  H   H21       1.0  0.6922316970980089  0.9346258415638036  0.7206560342159445  1.0000
  H   H22       1.0  0.7605741563079969  0.9595704055815772  0.4296317185983296  1.0000
  H   H23       1.0  0.7599492553229334  0.9596516133489563  0.2668778364275808  1.0000
  H   H24       1.0  0.7569276515490262  0.9063936491124046  0.04612816386578869  1.0000
  H   H25       1.0  0.7468516435477933  0.7135226019944961  0.289426814265376  1.0000
  H   H26       1.0  0.7462758464359204  0.7135967010238184  0.4522154604490334  1.0000
  Zn  Zn1       1.0  0.6846567838698614  0.8363193549991383  0.004500326407442802  1.0000
  Zn  Zn2       1.0  0.8221892590945138  0.836921537035264  0.002191530103667684  1.0000
  C   C43       1.0  0.7534091224363686  0.8335813076112848  0.1662785414323691  1.0000
  C   C44       1.0  0.7534384220519971  0.8396605516897673  0.8404133773961457  1.0000
  C   C45       1.0  0.7533771981654788  0.9756823713948823  0.9997870579309478  1.0000
  C   C46       1.0  0.7534702996901665  0.6975585729206895  0.006904909273841467  1.0000
  O   O3        1.0  0.8056265348669187  0.8409026896176995  0.8727740630540753  1.0000
  O   O4        1.0  0.8056049762479438  0.8327956375305935  0.13216527601950212  1.0000
  O   O5        1.0  0.805578493316813  0.9475440405337767  0.9977222369248377  1.0000
  O   O6        1.0  0.805652970872508  0.726154291858228  0.007217036048517981  1.0000
  O   O7        1.0  0.7011930251587835  0.9470865999715078  0.9994748212457791  1.0000
  O   O8        1.0  0.7012195077895508  0.8323391117491381  0.13391781274735626  1.0000
  O   O9        1.0  0.7012410665676844  0.8404461373437379  0.8745255272361019  1.0000
  O   O10       1.0  0.7012675025657316  0.7256977341358886  0.008968567113952892  1.0000
