data_image0
_chemical_formula_structural       NC9NC3SH6C7F3H5C6NCOCH9Zn2C4O8
_chemical_formula_sum              "N3 C31 S1 H20 F3 O9 Zn2"
_cell_length_a       16.77567553997237
_cell_length_b       9.272718291674593
_cell_length_c       10.300272075376752
_cell_angle_alpha    85.97182266394306
_cell_angle_beta     90.39584268328142
_cell_angle_gamma    90.46558260785916

_space_group_name_H-M_alt    "P 1"
_space_group_IT_number       1

loop_
  _space_group_symop_operation_xyz
  'x, y, z'

loop_
  _atom_site_type_symbol
  _atom_site_label
  _atom_site_symmetry_multiplicity
  _atom_site_fract_x
  _atom_site_fract_y
  _atom_site_fract_z
  _atom_site_occupancy
  N   N1        1.0  0.7441682079737902  0.5988200750479382  0.5854015005855482  1.0000
  C   C1        1.0  0.6891957596413643  0.6535637292478451  0.6273765472635313  1.0000
  C   C2        1.0  0.6209741666764286  0.7214969848168326  0.6794643725770054  1.0000
  C   C3        1.0  0.6227099481627113  0.8192519288091185  0.7751883714678411  1.0000
  C   C4        1.0  0.5468757702103615  0.8674998093767395  0.8070311505900548  1.0000
  C   C5        1.0  0.48511693005126216  0.8075276983541603  0.7360061350954759  1.0000
  C   C6        1.0  0.3985081386125232  0.8364576238955707  0.7470558878175642  1.0000
  C   C7        1.0  0.34205197461781733  0.7481283713733295  0.6881631913174191  1.0000
  C   C8        1.0  0.2603019920263864  0.7748269036828461  0.6981410131106678  1.0000
  C   C9        1.0  0.2031904491739382  0.683535799927282  0.6378326525067963  1.0000
  N   N2        1.0  0.1572897387211194  0.6101508347371412  0.5893536383585869  1.0000
  C   C10       1.0  0.23417692487693484  0.8902027832881017  0.766852808452585  1.0000
  C   C11       1.0  0.2895407163769155  0.9787084572780687  0.8252851275655262  1.0000
  C   C12       1.0  0.3711313983635307  0.9524130620698303  0.8156046664482977  1.0000
  S   S1        1.0  0.5261641128977073  0.6942356918705148  0.6341193092083077  1.0000
  H   H1        1.0  0.6769686233796611  0.854605600812741  0.8211989882796871  1.0000
  H   H2        1.0  0.5383031670982733  0.9428509071882347  0.8810313289819572  1.0000
  H   H3        1.0  0.36121752722100253  0.6578988365242567  0.6350952848884643  1.0000
  H   H4        1.0  0.1711045781621426  0.9118007729495894  0.77508916094405  1.0000
  H   H5        1.0  0.2691972835681525  0.06825925638475461  0.8780308963863794  1.0000
  H   H6        1.0  0.4122789101266787  0.024154246466347565  0.8608559913773397  1.0000
  C   C13       1.0  0.952468833102737  0.1811514657837079  0.5845256233337877  1.0000
  C   C14       1.0  0.9038792939707396  0.2611614628293214  0.4943172976390826  1.0000
  C   C15       1.0  0.8496492182457627  0.19216901257193972  0.4143013401219393  1.0000
  C   C16       1.0  0.846121346038217  0.04078103776800934  0.42185963579229924  1.0000
  C   C17       1.0  0.8947705182008536  0.9598145517211553  0.509258509111729  1.0000
  C   C18       1.0  0.9489967725593385  0.02780857493577438  0.5902408171987792  1.0000
  C   C19       1.0  0.799609858325438  0.2797393398040258  0.3158176654188065  1.0000
  F   F1        1.0  0.7791260568532112  0.4105809563551622  0.36281673895557454  1.0000
  F   F2        1.0  0.7300264335293237  0.20643951098162772  0.2880209801663103  1.0000
  F   F3        1.0  0.8426137315573518  0.3057390594058307  0.20247778303086728  1.0000
  H   H7        1.0  0.04711413650134144  0.2623466495179285  0.8656843669896295  1.0000
  H   H8        1.0  0.9070612526583159  0.3782195889263423  0.4883037105826216  1.0000
  H   H9        1.0  0.8062779723858338  0.9846165455425315  0.3590319589398525  1.0000
  H   H10       1.0  0.891517015243855  0.8429556426377831  0.5109745706778523  1.0000
  H   H11       1.0  0.12011995077637039  0.9165359519525926  0.7481749646736999  1.0000
  C   C20       1.0  0.9507387487084961  0.6046266014406312  0.20603151902338987  1.0000
  C   C21       1.0  0.8690157333358807  0.6364911530716802  0.2020421796385341  1.0000
  C   C22       1.0  0.8280679498689704  0.6545018812330982  0.08263280331788714  1.0000
  C   C23       1.0  0.8690251384851437  0.6361627030499628  0.9669060791728273  1.0000
  C   C24       1.0  0.9507268952531753  0.6043333980099713  0.9687349114269033  1.0000
  C   C25       1.0  0.9912179051467941  0.5892725258261595  0.08880273403886418  1.0000
  N   N3        1.0  0.7441268088811797  0.6848956172182268  0.07707007862807869  1.0000
  C   C26       1.0  0.7041872837419908  0.77355027518486  0.16474921417094768  1.0000
  O   O1        1.0  0.7434386508685603  0.8517389268325928  0.23791099360145407  1.0000
  C   C27       1.0  0.6152833893397  0.78171609789101  0.16285826459885547  1.0000
  H   H12       1.0  0.9815564858336255  0.590429198676053  0.5351014311434963  1.0000
  H   H13       1.0  0.8368894397863915  0.64446345641025  0.29193808290096235  1.0000
  H   H14       1.0  0.836824151575989  0.6480879181277266  0.8753157257433957  1.0000
  H   H15       1.0  0.054253069738607884  0.5647355275370476  0.09106830084627848  1.0000
  H   H16       1.0  0.9814299023708108  0.590154638296458  0.642150775127584  1.0000
  H   H17       1.0  0.7109687402185575  0.6480312626630893  0.9995519935926254  1.0000
  H   H18       1.0  0.5892554111737826  0.6732570807913778  0.14950204332295436  1.0000
  H   H19       1.0  0.5932840263315717  0.8196235612868596  0.2559543349708051  1.0000
  H   H20       1.0  0.5958148488343379  0.8582360263748403  0.08133266100244674  1.0000
  Zn  Zn1       1.0  0.863386176372086  0.6020860357626351  0.5865494834301843  1.0000
  Zn  Zn2       1.0  0.038071813418675715  0.6068731097872717  0.5882162407628815  1.0000
  C   C28       1.0  0.9507508877545607  0.5986458288790415  0.8245288293662689  1.0000
  C   C29       1.0  0.9507090021367092  0.6103151878270572  0.3502370527666725  1.0000
  C   C30       1.0  0.9496490545940953  0.8677742413917241  0.5839855130879041  1.0000
  C   C31       1.0  0.9518107827908193  0.34118504165865904  0.5907804260203766  1.0000
  O   O2        1.0  0.01699133358408012  0.6140347098385972  0.3992662304924743  1.0000
  O   O3        1.0  0.017050917340709185  0.5985584979010403  0.7767643007196017  1.0000
  O   O4        1.0  0.016160279456259422  0.8158830695897574  0.5825238725323512  1.0000
  O   O5        1.0  0.01788191181938115  0.3967101468663041  0.5935065608103183  1.0000
  O   O6        1.0  0.8835760183597399  0.8122489970515814  0.5812591628071451  1.0000
  O   O7        1.0  0.884466649138904  0.5949261573865587  0.7754995334434533  1.0000
  O   O8        1.0  0.884407065665619  0.6104023196898315  0.39799990154760173  1.0000
  O   O9        1.0  0.8852976439384279  0.39307774636909265  0.5922403291592502  1.0000
