data_image0
_chemical_formula_structural       NC9NC3OH6C12H10C8NH7Zn2C4O8
_chemical_formula_sum              "N3 C36 O9 H23 Zn2"
_cell_length_a       15.78231758774541
_cell_length_b       10.299137764757564
_cell_length_c       9.274266800404106
_cell_angle_alpha    85.96615715637442
_cell_angle_beta     89.63778846235708
_cell_angle_gamma    89.65025930418041

_space_group_name_H-M_alt    "P 1"
_space_group_IT_number       1

loop_
  _space_group_symop_operation_xyz
  'x, y, z'

loop_
  _atom_site_type_symbol
  _atom_site_label
  _atom_site_symmetry_multiplicity
  _atom_site_fract_x
  _atom_site_fract_y
  _atom_site_fract_z
  _atom_site_occupancy
  N   N1        1.0  0.8054683779550859  0.4026576569757518  0.41211298650159944  1.0000
  C   C1        1.0  0.756796602972819  0.3207684017674498  0.4388727074154189  1.0000
  C   C2        1.0  0.6963688255242275  0.21912393369812141  0.47208841449610417  1.0000
  C   C3        1.0  0.7158139385092491  0.09144150670074211  0.5137245540176851  1.0000
  C   C4        1.0  0.6389775813033551  0.02956216326570614  0.5339858055238631  1.0000
  C   C5        1.0  0.5773576736889127  0.12406208185902344  0.5032161162897892  1.0000
  C   C6        1.0  0.48423650445423205  0.10659117921281935  0.509006817947451  1.0000
  C   C7        1.0  0.43067447012776233  0.2137174444070786  0.4739423405476313  1.0000
  C   C8        1.0  0.34244319453335714  0.19939177677810943  0.47869852513205685  1.0000
  C   C9        1.0  0.2881900313670686  0.309634874403506  0.44260467540663023  1.0000
  N   N2        1.0  0.24458336520934398  0.3982560919473594  0.41358844785425464  1.0000
  C   C10       1.0  0.3070923831961763  0.07778041677135006  0.5185736309795468  1.0000
  C   C11       1.0  0.359723841286534  0.9708756647857991  0.5535704497385414  1.0000
  C   C12       1.0  0.44776878010933924  0.9848077738100344  0.5489435134276535  1.0000
  O   O1        1.0  0.614007097764609  0.23605603846075662  0.4666418597223432  1.0000
  H   H1        1.0  0.7782012647047905  0.0483820305367757  0.5277093130751298  1.0000
  H   H2        1.0  0.6300720582590355  0.9278154860029266  0.5671814514321427  1.0000
  H   H3        1.0  0.4574419313316702  0.3083526105575294  0.44290719700415915  1.0000
  H   H4        1.0  0.23895510747579773  0.06564730483011182  0.5225995161914704  1.0000
  H   H5        1.0  0.33222716968553795  0.876887476920404  0.5843938911061952  1.0000
  H   H6        1.0  0.48671045097750565  0.9001317434987621  0.5766726154970967  1.0000
  C   C13       1.0  0.024947639397570495  0.01905882224966882  0.4130075894722032  1.0000
  C   C14       1.0  0.0256086238255342  0.027886656310354137  0.2612251987428045  1.0000
  C   C15       1.0  0.026028237892937057  0.9152290978251665  0.18411031527604815  1.0000
  C   C16       1.0  0.025777882529234734  0.7926271095893022  0.26082937119697425  1.0000
  C   C17       1.0  0.025112121197382143  0.7818449520896664  0.4127063397333386  1.0000
  C   C18       1.0  0.02470251883596774  0.8955719915484694  0.4878604353488149  1.0000
  C   C19       1.0  0.02672649066186739  0.9256129976946832  0.02353953841115763  1.0000
  C   C20       1.0  0.07818513924538045  0.8422621284711183  0.9461654467784406  1.0000
  C   C21       1.0  0.07873709327780865  0.8522878622218653  0.7950210300909455  1.0000
  C   C22       1.0  0.028050820344392557  0.9452779130615763  0.7195427608668314  1.0000
  C   C23       1.0  0.9767068439309983  0.028500805987438538  0.7950556882246542  1.0000
  C   C24       1.0  0.9759418381754442  0.018972111168070068  0.9462003631089861  1.0000
  H   H7        1.0  0.024650139461363185  0.3431394239830359  0.4713929886483419  1.0000
  H   H8        1.0  0.026971208508102633  0.12260635032693412  0.20262299646097565  1.0000
  H   H9        1.0  0.02493171351249089  0.7054715477340959  0.20194616763127127  1.0000
  H   H10       1.0  0.02419036677863006  0.8880473743142253  0.6049336684380127  1.0000
  H   H11       1.0  0.023316761070468765  0.5542080297371527  0.6993643409317492  1.0000
  H   H12       1.0  0.11876562933434903  0.7705681614820461  0.002489451604129614  1.0000
  H   H13       1.0  0.11867764081780158  0.7880842758096582  0.7363792788399692  1.0000
  H   H14       1.0  0.028560595172694814  0.952846239135523  0.6025469129264978  1.0000
  H   H15       1.0  0.9372772268189139  0.1002895974988982  0.7364394262455117  1.0000
  H   H16       1.0  0.9348708131956756  0.08337910768623336  0.0025435589916862323  1.0000
  C   C25       1.0  0.026978037659952426  0.39759263812457857  0.9895538995622823  1.0000
  C   C26       1.0  0.9777198233991344  0.3051107155667733  0.07057466038988358  1.0000
  C   C27       1.0  0.9233366048613157  0.2227811393363421  0.0025277008117035  1.0000
  C   C28       1.0  0.9163992197003002  0.2316783119166474  0.851803035360218  1.0000
  C   C29       1.0  0.9668199563847162  0.32104351522498065  0.7694811581229201  1.0000
  C   C30       1.0  0.02308170574828017  0.4033111353705461  0.8361599753815314  1.0000
  C   C31       1.0  0.8586681350488216  0.14154346401766116  0.7785631519589238  1.0000
  C   C32       1.0  0.9045250287751305  0.022345308699688312  0.7475491274581763  1.0000
  N   N3        1.0  0.9407229246995792  0.9282703843192865  0.7230691105540488  1.0000
  H   H17       1.0  0.12037768040066127  0.6825023796608818  0.0691899053336107  1.0000
  H   H18       1.0  0.9798816217020632  0.29836255756588725  0.1875986087078847  1.0000
  H   H19       1.0  0.8859292506033661  0.1527456688851787  0.06767384538616916  1.0000
  H   H20       1.0  0.9635208944110129  0.32404001250121806  0.6525779047055811  1.0000
  H   H21       1.0  0.08904277849484732  0.5925783869095351  0.5399664699818323  1.0000
  H   H22       1.0  0.8345103488662113  0.1893419024337226  0.675694126865647  1.0000
  H   H23       1.0  0.8030912539413563  0.11541486799511302  0.8485485373774972  1.0000
  Zn  Zn1       1.0  0.9321874351986373  0.40138404732672894  0.4125470915712819  1.0000
  Zn  Zn2       1.0  0.11786422295575201  0.39951918091006977  0.4131661306278218  1.0000
  C   C33       1.0  0.02381520862073904  0.3970561639614295  0.6761353659048941  1.0000
  C   C34       1.0  0.026238476820643387  0.403848683611544  0.149578003889131  1.0000
  C   C35       1.0  0.025103111797678778  0.6376233816466739  0.4070190361805506  1.0000
  C   C36       1.0  0.024950509595007542  0.1632799066599422  0.4186944108704327  1.0000
  O   O2        1.0  0.09645364551624341  0.40523489636599064  0.20351847947316484  1.0000
  O   O3        1.0  0.09452442726281009  0.39425357814659323  0.6226643120751783  1.0000
  O   O4        1.0  0.09556346858779707  0.5885146684796195  0.4053509680798095  1.0000
  O   O5        1.0  0.09541454133176991  0.21097381523019892  0.42083171517194384  1.0000
  O   O6        1.0  0.9546370534602792  0.58992941364435  0.40488150680832957  1.0000
  O   O7        1.0  0.9535980128216482  0.3956698832154315  0.6221947733279103  1.0000
  O   O8        1.0  0.9555272390978068  0.4066511444684981  0.20304720765650286  1.0000
  O   O9        1.0  0.9544881344104791  0.21239005477322223  0.4203605514330414  1.0000
