data_image0
_chemical_formula_structural       NC9NC3SH6C6SCNH4C7F3H3Zn2C4O8
_chemical_formula_sum              "N3 C30 S2 H13 F3 Zn2 O8"
_cell_length_a       16.77567553997237
_cell_length_b       10.302215558581764
_cell_length_c       9.272721663655245
_cell_angle_alpha    85.88255001393937
_cell_angle_beta     90.90861439337802
_cell_angle_gamma    90.91242892959859

_space_group_name_H-M_alt    "P 1"
_space_group_IT_number       1

loop_
  _space_group_symop_operation_xyz
  'x, y, z'

loop_
  _atom_site_type_symbol
  _atom_site_label
  _atom_site_symmetry_multiplicity
  _atom_site_fract_x
  _atom_site_fract_y
  _atom_site_fract_z
  _atom_site_occupancy
  N   N1        1.0  0.7431137969234076  0.4314120499485664  0.4173796169191697  1.0000
  C   C1        1.0  0.6886070276264953  0.4809665836045119  0.4635856772569727  1.0000
  C   C2        1.0  0.6209633091566049  0.5424604810519873  0.5209238630345081  1.0000
  C   C3        1.0  0.6236459194349455  0.631074014918708  0.6264967288237129  1.0000
  C   C4        1.0  0.5481935725555163  0.6747175693666351  0.6614995871972686  1.0000
  C   C5        1.0  0.4857855992761765  0.6202798050507781  0.5830741808390829  1.0000
  C   C6        1.0  0.3993611161031566  0.646400626412365  0.5951305046182171  1.0000
  C   C7        1.0  0.3422026064875555  0.5664971065126136  0.5303866142242617  1.0000
  C   C8        1.0  0.26062149721025946  0.5906018845145409  0.5412691129969731  1.0000
  C   C9        1.0  0.2027871608624125  0.5080224021878987  0.4749751005362986  1.0000
  N   N2        1.0  0.1563054294905354  0.4416403338248911  0.42168450936659063  1.0000
  C   C10       1.0  0.23536824784232646  0.6949227255046403  0.6167166806639068  1.0000
  C   C11       1.0  0.2914325798347559  0.7749823669828483  0.680948051243629  1.0000
  C   C12       1.0  0.37285775261121806  0.7512424423957733  0.6703927734526554  1.0000
  S   S1        1.0  0.5257857010343936  0.5176364900086697  0.4707726712820755  1.0000
  H   H1        1.0  0.6783102437708829  0.663190048114539  0.6773272070822285  1.0000
  H   H2        1.0  0.540351991292132  0.7430236083613492  0.7431151266295122  1.0000
  H   H3        1.0  0.3606900629847659  0.4849171599312506  0.4721247799859041  1.0000
  H   H4        1.0  0.1724334267026736  0.714423466170997  0.6257030681986679  1.0000
  H   H5        1.0  0.2717625699376265  0.855949105561053  0.7388571868081137  1.0000
  H   H6        1.0  0.4145613838091887  0.8161247289405531  0.7201113811011981  1.0000
  C   C13       1.0  0.9496340392441175  0.055251922404106805  0.4194915941924422  1.0000
  C   C14       1.0  0.02976506067394169  0.05339146798792749  0.46569939478235733  1.0000
  C   C15       1.0  0.06964397419761892  0.9354272606450085  0.489150395695541  1.0000
  C   C16       1.0  0.02997290109553119  0.8182220166653822  0.4658236557102092  1.0000
  C   C17       1.0  0.9497928499769372  0.817790716706388  0.4195850779998027  1.0000
  C   C18       1.0  0.9100550577720411  0.9368359851819648  0.396728705094856  1.0000
  S   S2        1.0  0.1720164251366385  0.9345705068807018  0.5475435466007097  1.0000
  C   C19       1.0  0.14663337757760075  0.9220360661747948  0.7320567210007005  1.0000
  N   N3        1.0  0.1299682805806353  0.9138184584504837  0.8530206360937342  1.0000
  H   H7        1.0  0.06150907450457987  0.14324032350469795  0.4839225616708806  1.0000
  H   H8        1.0  0.06185938122310053  0.7277930660419545  0.48413207107488715  1.0000
  H   H9        1.0  0.8482548455503401  0.9374212831739648  0.36111162999039625  1.0000
  H   H10       1.0  0.7986869719538294  0.6097703629290081  0.33228260217553696  1.0000
  C   C20       1.0  0.9476035123301794  0.4343632493723981  0.9960728932463679  1.0000
  C   C21       1.0  0.9815141268467844  0.3290044773395815  0.07913574209075702  1.0000
  C   C22       1.0  0.022414355354436706  0.23154164122552134  0.01364500092470333  1.0000
  C   C23       1.0  0.026960821578636766  0.2376329882546024  0.8625432707705709  1.0000
  C   C24       1.0  0.9925771273801566  0.3402768454916715  0.7785068653926333  1.0000
  C   C25       1.0  0.9518234218429769  0.43867944006575904  0.8430037947418061  1.0000
  C   C26       1.0  0.05651181113821103  0.11760081366742361  0.1043337787626133  1.0000
  F   F1        1.0  0.08336990343258788  0.1560008477275603  0.2368511017331569  1.0000
  F   F2        1.0  0.12005360914255969  0.06546999117160901  0.03586941726154014  1.0000
  F   F3        1.0  0.9979583401386031  0.022695381468925028  0.12674817495291824  1.0000
  H   H11       1.0  0.8971297095181379  0.7422895539427785  0.07180366160316698  1.0000
  H   H12       1.0  0.05641382187643607  0.16209202701095987  0.8089330845444622  1.0000
  H   H13       1.0  0.8087924855061788  0.6541269921988951  0.720249130166605  1.0000
  Zn  Zn1       1.0  0.8623520203396823  0.43436028772798074  0.4186302517446818  1.0000
  Zn  Zn2       1.0  0.0370672579082889  0.43868156467090524  0.42044571560151045  1.0000
  C   C27       1.0  0.9510228962124758  0.43269113063715553  0.6829150839680329  1.0000
  C   C28       1.0  0.9483982909669122  0.44035240788474006  0.15616104494043404  1.0000
  C   C29       1.0  0.9497301169499216  0.6736252904547171  0.41382097407847374  1.0000
  C   C30       1.0  0.9496910106695037  0.19941668706853588  0.42525523090056594  1.0000
  O   O1        1.0  0.01496854687908278  0.4439966619351277  0.21057704944988265  1.0000
  O   O2        1.0  0.01705746070711656  0.4323256442036878  0.6298765592866289  1.0000
  O   O3        1.0  0.01601263877104531  0.6268830108195445  0.412581152543279  1.0000
  O   O4        1.0  0.016013308659881934  0.24943930258160885  0.42787234745172653  1.0000
  O   O5        1.0  0.8834059099663158  0.6236025483440123  0.4112036192673518  1.0000
  O   O6        1.0  0.8844507318405765  0.4290467412535326  0.6284989493130153  1.0000
  O   O7        1.0  0.8823618094176058  0.4407177049059009  0.20919770571889407  1.0000
  O   O8        1.0  0.8834065717319035  0.2461603368167795  0.42649311183513117  1.0000
