data_image0
_chemical_formula_structural       NC5NC3BrH3C6ClH5C6NH7Zn2C4O8
_chemical_formula_sum              "N3 C24 Br1 H15 Cl1 Zn2 O8"
_cell_length_a       13.839083392302014
_cell_length_b       10.30297070629231
_cell_length_c       9.274774538082514
_cell_angle_alpha    85.06361778746081
_cell_angle_beta     90.35089926540529
_cell_angle_gamma    90.02428142920579

_space_group_name_H-M_alt    "P 1"
_space_group_IT_number       1

loop_
  _space_group_symop_operation_xyz
  'x, y, z'

loop_
  _atom_site_type_symbol
  _atom_site_label
  _atom_site_symmetry_multiplicity
  _atom_site_fract_x
  _atom_site_fract_y
  _atom_site_fract_z
  _atom_site_occupancy
  N   N1        1.0  0.9033563951927893  0.43385785443412067  0.40804195569220547  1.0000
  C   C1        1.0  0.8313650651477261  0.376539053767262  0.41050868802704654  1.0000
  C   C2        1.0  0.7416697217763594  0.30521464904480733  0.4135779980192545  1.0000
  C   C3        1.0  0.6540997457031819  0.3738442110167496  0.410624849833062  1.0000
  C   C4        1.0  0.5660662913949517  0.30654105793540576  0.4135208622544455  1.0000
  C   C5        1.0  0.476293477196939  0.3772884070010222  0.4104764241346453  1.0000
  N   N2        1.0  0.4041277823683542  0.4341637308591194  0.4080287372630189  1.0000
  C   C6        1.0  0.5655370355324325  0.17032778731457188  0.41938214328015366  1.0000
  C   C7        1.0  0.6526619868272691  0.10158900626716649  0.4223398997792007  1.0000
  C   C8        1.0  0.7408915954130735  0.16824898271165042  0.4194715835541678  1.0000
  Br  Br1       1.0  0.8583139597661266  0.06909603700848321  0.4237382411180713  1.0000
  H   H1        1.0  0.6544547829242112  0.47939796908830024  0.4060826534342572  1.0000
  H   H2        1.0  0.49785294771916283  0.11732216000095952  0.42166271683312195  1.0000
  H   H3        1.0  0.6515437069732373  0.9962596990502727  0.4268720603175822  1.0000
  C   C9        1.0  0.1537467209356551  0.052763285324756604  0.40804158497921295  1.0000
  C   C10       1.0  0.25363766262890963  0.04946347702232433  0.43583733728802115  1.0000
  C   C11       1.0  0.30320088135302137  0.9308693570959755  0.4496287468195979  1.0000
  C   C12       1.0  0.25363766157976  0.8143555088834662  0.4358372694125161  1.0000
  C   C13       1.0  0.15374673158588115  0.8152482264967814  0.4080416675962488  1.0000
  C   C14       1.0  0.10428818384615067  0.9350437153602784  0.39427925149823695  1.0000
  Cl  Cl1       1.0  0.427988466738167  0.9282506280480898  0.4843521644408233  1.0000
  H   H4        1.0  0.11611954942084513  0.38130938997007036  0.3975706038977656  1.0000
  H   H5        1.0  0.2933667172685781  0.13867632854488354  0.4468922595922702  1.0000
  H   H6        1.0  0.29336667863161936  0.7234751365054215  0.4468921559021879  1.0000
  H   H7        1.0  0.027249258096146534  0.9366603007439261  0.37284228732205965  1.0000
  H   H8        1.0  0.11611954582351336  0.4882814211572302  0.3975708763832071  1.0000
  C   C15       1.0  0.1520126046730257  0.43732521485341985  0.9842253314881897  1.0000
  C   C16       1.0  0.22048137033817983  0.5139808107867644  0.050960037928093685  1.0000
  C   C17       1.0  0.29328516109921443  0.5799446105669536  0.970193203401483  1.0000
  C   C18       1.0  0.2982098319693969  0.5695521425120601  0.8212156579766289  1.0000
  C   C19       1.0  0.23005107815561354  0.4957567096496629  0.7527783809070354  1.0000
  C   C20       1.0  0.15548085947515955  0.43068622675079643  0.8318578661736802  1.0000
  N   N3        1.0  0.3628632233409457  0.65642026540912  0.03993312573069873  1.0000
  H   H9        1.0  0.0075773247076580405  0.18344668054623026  0.11014944515684122  1.0000
  H   H10       1.0  0.21874201892880496  0.5201371208840594  0.16698021336786728  1.0000
  H   H11       1.0  0.3544198277004922  0.6197466899513222  0.7576834067733049  1.0000
  H   H12       1.0  0.23435991015176016  0.49214803170547755  0.6366052176194965  1.0000
  H   H13       1.0  0.055230992733867446  0.26364062434855  0.5657787221720945  1.0000
  H   H14       1.0  0.3600572501120529  0.6645599996682168  0.15130312290118075  1.0000
  H   H15       1.0  0.4176785256196934  0.7055930198051907  0.9806895959112518  1.0000
  Zn  Zn1       1.0  0.047868237354327325  0.4339425776018069  0.40804648196855564  1.0000
  Zn  Zn2       1.0  0.25961598081021187  0.43406827374554235  0.40803605514302177  1.0000
  C   C21       1.0  0.15482313475770715  0.42676913365247565  0.6716371688830263  1.0000
  C   C22       1.0  0.15266339626527858  0.4412433560556454  0.14444550976855464  1.0000
  C   C23       1.0  0.1537182402035111  0.6711673553508948  0.40229042800262693  1.0000
  C   C24       1.0  0.1537682188795435  0.19684357390607743  0.41379232759751994  1.0000
  O   O1        1.0  0.2332389729773321  0.442600357130465  0.1982129083026723  1.0000
  O   O2        1.0  0.23495919411943758  0.4255065568858929  0.6178614411734771  1.0000
  O   O3        1.0  0.23406590068095157  0.622861199347837  0.4003620422930724  1.0000
  O   O4        1.0  0.23413219371788244  0.24524572476045242  0.41571219897391387  1.0000
  O   O5        1.0  0.07335195218751324  0.6227651265454761  0.4003703381336308  1.0000
  O   O6        1.0  0.07424524530678656  0.42541204449326  0.6178696600614368  1.0000
  O   O7        1.0  0.07252501712906302  0.44250581308692216  0.1982193920019759  1.0000
  O   O8        1.0  0.07341823830840499  0.24515117058355734  0.41571879087834845  1.0000
