data_image0
_chemical_formula_structural       NC8SNC5NC2H9C12H8C8NC6H15Zn2C4O8
_chemical_formula_sum              "N4 C45 S1 H32 Zn2 O8"
_cell_length_a       21.362259523660498
_cell_length_b       14.994057918209652
_cell_length_c       14.927698822507613
_cell_angle_alpha    85.54176932082582
_cell_angle_beta     89.35006700839963
_cell_angle_gamma    90.09878566977402

_space_group_name_H-M_alt    "P 1"
_space_group_IT_number       1

loop_
  _space_group_symop_operation_xyz
  'x, y, z'

loop_
  _atom_site_type_symbol
  _atom_site_label
  _atom_site_symmetry_multiplicity
  _atom_site_fract_x
  _atom_site_fract_y
  _atom_site_fract_z
  _atom_site_occupancy
  N   N1        1.0  0.589367852185375  0.9790259382005922  0.0018856169257225356  1.0000
  C   C1        1.0  0.5360601622691537  0.9662763656721558  0.009515880165722912  1.0000
  C   C2        1.0  0.46975127956229373  0.9504173097659965  0.01900690086707925  1.0000
  C   C3        1.0  0.4381748927272767  0.9710019601322777  0.09738523056795306  1.0000
  C   C4        1.0  0.37378369138273376  0.9555357942914583  0.10667136790398746  1.0000
  C   C5        1.0  0.3400926486477634  0.9194820760964881  0.037485689250576076  1.0000
  C   C6        1.0  0.37228130072355714  0.8986828822627401  0.9590948475433565  1.0000
  C   C7        1.0  0.43669965242919623  0.9141300853870872  0.9499837660844647  1.0000
  C   C8        1.0  0.2718285860076172  0.9035608907227726  0.04770766763687595  1.0000
  S   S1        1.0  0.244858001318592  0.8530772788068637  0.14219052760192116  1.0000
  N   N2        1.0  0.2310166701053192  0.9214639622846899  0.9722333017511495  1.0000
  C   C9        1.0  0.16438285032366973  0.9326439819658365  0.9795084751557868  1.0000
  C   C10       1.0  0.1255627864552777  0.9007757527219168  0.9138152178013785  1.0000
  C   C11       1.0  0.06073627573085252  0.9127551105807424  0.9183880110995803  1.0000
  C   C12       1.0  0.034169621723814006  0.9578363495217116  0.9881396735334842  1.0000
  C   C13       1.0  0.9674459871034486  0.9702990782394371  0.9927789655365007  1.0000
  N   N3        1.0  0.9138038722743497  0.9803181212925484  0.9965093937183891  1.0000
  C   C14       1.0  0.07274000740151522  0.9914052936453609  0.05294640122101982  1.0000
  C   C15       1.0  0.1375643206477538  0.979392278156478  0.04840264113846182  1.0000
  H   H1        1.0  0.4632844427646042  0.9991202208366377  0.15125824760767004  1.0000
  H   H2        1.0  0.3501491183445072  0.9726237298268033  0.16755901965485095  1.0000
  H   H3        1.0  0.3481447791840466  0.8688467663924354  0.9054904429568554  1.0000
  H   H4        1.0  0.4607607119723597  0.8974117507188333  0.8892571824901502  1.0000
  H   H5        1.0  0.2504055571960467  0.9274449605593656  0.9075344593368553  1.0000
  H   H6        1.0  0.1456086820187242  0.8660252627387099  0.8594328235438766  1.0000
  H   H7        1.0  0.0313962742622192  0.8870559532594683  0.8674994768579662  1.0000
  H   H8        1.0  0.052766335879645805  0.02732715713545298  0.10660533927957228  1.0000
  H   H9        1.0  0.1667878938135352  0.007687731131261974  0.09778174331944345  1.0000
  C   C16       1.0  0.7516149431963894  0.7177039532535847  0.9991877866089671  1.0000
  C   C17       1.0  0.7877844874647515  0.6653963039818811  0.06122811091817573  1.0000
  C   C18       1.0  0.7877531673434691  0.5721725192154073  0.0612657142133818  1.0000
  C   C19       1.0  0.7516054176596944  0.5292029658479344  0.999235649326836  1.0000
  C   C20       1.0  0.7154712081157109  0.5816099667879564  0.9371972944470344  1.0000
  C   C21       1.0  0.7154613301798373  0.6748336007516506  0.937207816507809  1.0000
  C   C22       1.0  0.7515907638669893  0.4301284042047845  0.9992432497096173  1.0000
  C   C23       1.0  0.7525530383862032  0.3887296667160614  0.9179186952812044  1.0000
  C   C24       1.0  0.7525653973485102  0.2955053262248918  0.9179177429575207  1.0000
  C   C25       1.0  0.7515627945343328  0.2416332422910243  0.9992148709263624  1.0000
  C   C26       1.0  0.7505739390742305  0.2829298820183297  0.0805734675594334  1.0000
  C   C27       1.0  0.7506144342785442  0.3761508095697024  0.08057375125838973  1.0000
  H   H10       1.0  0.8162873611492802  0.6964796726791972  0.10968736807795493  1.0000
  H   H11       1.0  0.8167147156148394  0.5337385338769187  0.10912253331427169  1.0000
  H   H12       1.0  0.6864999473892632  0.5504452498577365  0.8893486538711248  1.0000
  H   H13       1.0  0.6869638255183758  0.7132508178310614  0.8887346229593595  1.0000
  H   H14       1.0  0.75414768487182  0.4284627740605577  0.8541791267663053  1.0000
  H   H15       1.0  0.7535218382276441  0.2657080264043651  0.854131654078796  1.0000
  H   H16       1.0  0.7496073543802207  0.24322814050488803  0.1443536796617345  1.0000
  H   H17       1.0  0.7490307641665587  0.40601586495770237  0.14431083086188823  1.0000
  C   C28       1.0  0.7515849302944588  0.979768465625262  0.7360632068487656  1.0000
  C   C29       1.0  0.7783226266214409  0.9137199418889231  0.6860336798411075  1.0000
  C   C30       1.0  0.7467811010866037  0.8828666280751514  0.6129250271641236  1.0000
  C   C31       1.0  0.6876268977284138  0.91718580757547  0.5883803768420968  1.0000
  C   C32       1.0  0.6610988486700745  0.9836106824097063  0.6382681407712271  1.0000
  C   C33       1.0  0.6926445413749833  0.014457123231601084  0.7113790216611608  1.0000
  C   C34       1.0  0.6531305987996567  0.8853560288735067  0.5083902327301391  1.0000
  C   C35       1.0  0.6398895588971654  0.783797057315378  0.5200157843083488  1.0000
  N   N4        1.0  0.605614645156827  0.7548636956855334  0.44319868075070556  1.0000
  C   C36       1.0  0.68727173159326  0.9158150926955234  0.4213041962690156  1.0000
  C   C37       1.0  0.6710464320325893  0.9980042735405785  0.37588682549230507  1.0000
  C   C38       1.0  0.7025888717110336  0.02936183570424379  0.29712292805521767  1.0000
  C   C39       1.0  0.7515927727243784  0.9795687359613899  0.2623394741753331  1.0000
  C   C40       1.0  0.76851745459679  0.8980152955782632  0.3081815263639749  1.0000
  C   C41       1.0  0.7369822252505859  0.8666420825489954  0.3869775238873341  1.0000
  H   H18       1.0  0.8669768896994609  0.999278470703862  0.8900840431567532  1.0000
  H   H19       1.0  0.8237376727272377  0.8858252068681423  0.703226872669374  1.0000
  H   H20       1.0  0.7688011110194619  0.8322089554399679  0.575652049021782  1.0000
  H   H21       1.0  0.615862465370703  0.011885504912903827  0.6206260086609239  1.0000
  H   H22       1.0  0.6708649252077235  0.0656021544489645  0.7484772977199361  1.0000
  H   H23       1.0  0.6059756444631429  0.917027515233411  0.5059918950913251  1.0000
  H   H24       1.0  0.6839642065814654  0.7449957307096521  0.5277293416158993  1.0000
  H   H25       1.0  0.6116392578575242  0.7684138980476665  0.5824834416780922  1.0000
  H   H26       1.0  0.6002107565240686  0.6854183217146711  0.4524061606247092  1.0000
  H   H27       1.0  0.5605727714203268  0.7820187197175164  0.44458699973092974  1.0000
  H   H28       1.0  0.6338439017538274  0.038208850141205904  0.401613287302486  1.0000
  H   H29       1.0  0.6886870620254265  0.09278754679127493  0.26365852841661286  1.0000
  H   H30       1.0  0.8063374381072639  0.8583679806735247  0.28336704814742  1.0000
  H   H31       1.0  0.7517769943545491  0.803928922148991  0.4205996437437045  1.0000
  H   H32       1.0  0.8570477823076762  0.9846510844436793  0.08813460156977371  1.0000
  Zn  Zn1       1.0  0.6829930832623167  0.9793964423448135  0.0003393292957154503  1.0000
  Zn  Zn2       1.0  0.8201786426788967  0.9799403085732741  0.9980630201845444  1.0000
  C   C42       1.0  0.7515902604089694  0.9760526071403577  0.1628618146297209  1.0000
  C   C43       1.0  0.7515829634835282  0.9832852752759367  0.8355405980012136  1.0000
  C   C44       1.0  0.7515693617093872  0.14260080298218974  0.9956390272916322  1.0000
  C   C45       1.0  0.7516038154786969  0.8167360074349425  0.0027634338341201437  1.0000
  O   O1        1.0  0.8036435086413588  0.9846680512369786  0.8680622715633375  1.0000
  O   O2        1.0  0.8036503806537082  0.9750819401741944  0.12861221714016635  1.0000
  O   O3        1.0  0.8036328028934668  0.10957171146998573  0.9935786449289001  1.0000
  O   O4        1.0  0.8036610395878228  0.8501782861626942  0.003095777364803933  1.0000
  O   O5        1.0  0.6995106395386917  0.10915846457077126  0.9953065728875348  1.0000
  O   O6        1.0  0.6995282171886475  0.974669765089519  0.1303400973760627  1.0000
  O   O7        1.0  0.6995213452049407  0.984255845474324  0.8697890744567758  1.0000
  O   O8        1.0  0.6995388761504833  0.8497660739939099  0.004822647440121396  1.0000
