data_image0
_chemical_formula_structural       NC5NC3OH4C6ClH5C7ONH5Zn2C4O8
_chemical_formula_sum              "N3 C25 O10 H14 Cl1 Zn2"
_cell_length_a       13.84702359539666
_cell_length_b       10.30297070629231
_cell_length_c       9.273042158839658
_cell_angle_alpha    86.1623812568413
_cell_angle_beta     90.0789287002439
_cell_angle_gamma    89.99918224466363

_space_group_name_H-M_alt    "P 1"
_space_group_IT_number       1

loop_
  _space_group_symop_operation_xyz
  'x, y, z'

loop_
  _atom_site_type_symbol
  _atom_site_label
  _atom_site_symmetry_multiplicity
  _atom_site_fract_x
  _atom_site_fract_y
  _atom_site_fract_z
  _atom_site_occupancy
  N   N1        1.0  0.9076134680391875  0.4058012376693025  0.4097956318158855  1.0000
  C   C1        1.0  0.8355381829232438  0.39859429330644325  0.4728506497092945  1.0000
  C   C2        1.0  0.7457774218031644  0.389620125083727  0.5513674328731522  1.0000
  C   C3        1.0  0.6581105121419204  0.3982897346409595  0.475514584170603  1.0000
  C   C4        1.0  0.5703309147287586  0.38972085162025527  0.5504857301531714  1.0000
  C   C5        1.0  0.4803946542952105  0.39864689552165333  0.47239011048549234  1.0000
  N   N2        1.0  0.408097537120282  0.40582275169903315  0.4096074582771357  1.0000
  C   C6        1.0  0.5702131205438199  0.37245649097357675  0.7015350830254021  1.0000
  C   C7        1.0  0.6574998758269408  0.36377877459082497  0.7774559574345545  1.0000
  C   C8        1.0  0.7455954312289357  0.3722924490193826  0.7029694546578981  1.0000
  O   O1        1.0  0.8326026982002275  0.3635999354425712  0.7790217218918367  1.0000
  H   H1        1.0  0.6582063491708293  0.4116647819812005  0.3584945428826536  1.0000
  H   H2        1.0  0.5027227822071101  0.36571232063878706  0.7605408249789885  1.0000
  H   H3        1.0  0.6566254325259321  0.350430262972113  0.8942446070876491  1.0000
  H   H4        1.0  0.8342540448965827  0.3511069622723446  0.8883241923934954  1.0000
  C   C9        1.0  0.15786010522387994  0.024564601480219436  0.4097077410090089  1.0000
  C   C10       1.0  0.25761034293601015  0.02168904205503662  0.4374324452797549  1.0000
  C   C11       1.0  0.3071037484029997  0.9033054213529402  0.4511886028024334  1.0000
  C   C12       1.0  0.25761034209107225  0.78658107274239  0.4374323774928501  1.0000
  C   C13       1.0  0.15786011562016355  0.7870495440756435  0.40970782351492624  1.0000
  C   C14       1.0  0.10847123409774273  0.9066349759740816  0.39598058515007417  1.0000
  Cl  Cl1       1.0  0.4317155612909135  0.9012166785109607  0.4858232646260052  1.0000
  H   H5        1.0  0.1202859368601481  0.35295088502556266  0.3992635235306513  1.0000
  H   H6        1.0  0.29728343655485245  0.11107062552301583  0.44845911021384177  1.0000
  H   H7        1.0  0.2972833982511105  0.6958694317114269  0.44845900667205374  1.0000
  H   H8        1.0  0.03154082363742172  0.9079243671178433  0.37459841542440797  1.0000
  H   H9        1.0  0.1202859324474923  0.45992292092931264  0.3992637956631384  1.0000
  C   C15       1.0  0.15739832671254278  0.40179463720273345  0.9864430246381275  1.0000
  C   C16       1.0  0.06869874693296986  0.41005806715544124  0.05915719000587205  1.0000
  C   C17       1.0  0.9817430959591475  0.4308793316051154  0.9829337309337327  1.0000
  C   C18       1.0  0.9840224253634011  0.44186906205648935  0.8314341737586495  1.0000
  C   C19       1.0  0.07114104413157075  0.43169943818176315  0.7577111722278282  1.0000
  C   C20       1.0  0.15832194380030298  0.4098194380406981  0.8329725162855506  1.0000
  C   C21       1.0  0.8894599855044107  0.43983788802126716  0.06282845695813942  1.0000
  O   O2        1.0  0.8830082314441093  0.3895971525823616  0.19020150326173005  1.0000
  N   N3        1.0  0.8073145211207369  0.5056989920264128  0.9993228899646804  1.0000
  H   H10       1.0  0.3917023751298586  0.4513947776968681  0.08631496671558157  1.0000
  H   H11       1.0  0.9183504380853497  0.4547026410540973  0.7688357389404157  1.0000
  H   H12       1.0  0.31625044955056547  0.4372039162147609  0.5499913407755748  1.0000
  H   H13       1.0  0.8119653268469065  0.5617619549744352  0.9016553147128387  1.0000
  H   H14       1.0  0.7420416704505122  0.5055500587518483  0.055589898786515324  1.0000
  Zn  Zn1       1.0  0.052042366666046114  0.40580404936764997  0.40974964003467074  1.0000
  Zn  Zn2       1.0  0.2636686272664661  0.40580942857422836  0.4096652131831775  1.0000
  C   C22       1.0  0.15814518060361538  0.403130575394823  0.6729602931575525  1.0000
  C   C23       1.0  0.15756812443549562  0.4084845420445404  0.14645470060787885  1.0000
  C   C24       1.0  0.15784889286619563  0.6428691810269794  0.40396407008246515  1.0000
  C   C25       1.0  0.15786434004344144  0.16874437733341496  0.41545100055665  1.0000
  O   O3        1.0  0.23793617310054382  0.4107261126665582  0.2001240412376652  1.0000
  O   O4        1.0  0.23839656658321445  0.4008921041224174  0.6192264595855332  1.0000
  O   O5        1.0  0.2381562294917901  0.5944840742588215  0.40201010669146137  1.0000
  O   O6        1.0  0.2381764378603517  0.21713415079109355  0.4173402860886481  1.0000
  O   O7        1.0  0.0775344838544958  0.5944793271502913  0.4020745671504292  1.0000
  O   O8        1.0  0.0777748208577296  0.4008889160923601  0.6192908431920465  1.0000
  O   O9        1.0  0.0773144255486096  0.41072286296731275  0.20018669191360394  1.0000
  O   O10       1.0  0.07755469042236873  0.21713089283041384  0.4174030448289051  1.0000
