data_image0
_chemical_formula_structural       NC8F2C7NH8C6H6C12H10Zn2C4O8
_chemical_formula_sum              "N2 C37 F2 H24 Zn2 O8"
_cell_length_a       17.998342126830877
_cell_length_b       10.302888698854451
_cell_length_c       13.024585202197207
_cell_angle_alpha    85.80961696087208
_cell_angle_beta     93.99278699860983
_cell_angle_gamma    90.0175668412245

_space_group_name_H-M_alt    "P 1"
_space_group_IT_number       1

loop_
  _space_group_symop_operation_xyz
  'x, y, z'

loop_
  _atom_site_type_symbol
  _atom_site_label
  _atom_site_symmetry_multiplicity
  _atom_site_fract_x
  _atom_site_fract_y
  _atom_site_fract_z
  _atom_site_occupancy
  N   N1        1.0  0.6426828546739838  0.41498065124408257  0.8649339863620763  1.0000
  C   C1        1.0  0.5941505606823511  0.391304692522325  0.9169293761164136  1.0000
  C   C2        1.0  0.5337818231900405  0.36185539581444326  0.9816039949468457  1.0000
  C   C3        1.0  0.5028499120023637  0.23710163126240683  0.9869356349579795  1.0000
  C   C4        1.0  0.4441196037441628  0.20846577713327916  0.04957240396279727  1.0000
  C   C5        1.0  0.41612264259947984  0.3040069567437651  0.10864655549867175  1.0000
  C   C6        1.0  0.446771752316983  0.4297262886187814  0.10144536329469923  1.0000
  C   C7        1.0  0.5054996938836026  0.4581553194618502  0.03876015833996227  1.0000
  C   C8        1.0  0.35071945027642804  0.27457323638114994  0.1732870843741351  1.0000
  F   F1        1.0  0.35258348890638214  0.1450112637540797  0.21073548441193504  1.0000
  F   F2        1.0  0.3550212398528608  0.3483261948781009  0.25840216608123434  1.0000
  C   C9        1.0  0.2788125387835071  0.30400724382177136  0.10864630990185309  1.0000
  C   C10       1.0  0.24748162780064556  0.4297264952989926  0.10144554214772432  1.0000
  C   C11       1.0  0.1824463969989691  0.45815554180774987  0.03876043086667069  1.0000
  C   C12       1.0  0.1483706372196551  0.3618556801039829  0.9816035829835288  1.0000
  C   C13       1.0  0.17979669283926844  0.2371024456840398  0.9869341384429149  1.0000
  C   C14       1.0  0.24482939432774764  0.20846676083856686  0.04957089372343293  1.0000
  C   C15       1.0  0.08149438759495388  0.39130491925267147  0.9169291762184477  1.0000
  N   N2        1.0  0.027730376351380703  0.4149807411227462  0.8649339009815261  1.0000
  H   H1        1.0  0.5239027763396497  0.1621196926923294  0.9423544719753151  1.0000
  H   H2        1.0  0.4203934888584238  0.11180532575511637  0.051589147434166434  1.0000
  H   H3        1.0  0.42511955531903706  0.5060802326878064  0.14402409633422478  1.0000
  H   H4        1.0  0.5286163280686782  0.5553561762423485  0.034545864907001955  1.0000
  H   H5        1.0  0.27345140058829753  0.5060801850716197  0.1440248316780746  1.0000
  H   H6        1.0  0.158938814457008  0.555356111276375  0.03454657706725495  1.0000
  H   H7        1.0  0.15422516375545334  0.16212085547754668  0.9423521103872146  1.0000
  H   H8        1.0  0.2687252871881388  0.11180690243446034  0.05158673748056275  1.0000
  C   C16       1.0  0.835135372879725  0.03373332996529443  0.8649045995508746  1.0000
  C   C17       1.0  0.9109232280535788  0.029561999745740586  0.899056012620046  1.0000
  C   C18       1.0  0.9485265574409514  0.9106130945590095  0.9160006286349214  1.0000
  C   C19       1.0  0.9111195643891555  0.7945469046533414  0.8991443815018044  1.0000
  C   C20       1.0  0.8352854093094332  0.7962181032975842  0.8649721915961246  1.0000
  C   C21       1.0  0.7976905537250227  0.9163863416060332  0.8480312968271602  1.0000
  H   H9        1.0  0.8064209060968072  0.3626088940704056  0.8519641289337012  1.0000
  H   H10       1.0  0.9412396896772343  0.11815000760653713  0.9127171797671327  1.0000
  H   H11       1.0  0.00693226253439372  0.9083699276816319  0.942319084015683  1.0000
  H   H12       1.0  0.9415700181408609  0.7035943322619002  0.9128657335708531  1.0000
  H   H13       1.0  0.7392530161169872  0.9186735948637655  0.8216984054849903  1.0000
  H   H14       1.0  0.6924490475121873  0.5922020245162934  0.8006067634290358  1.0000
  C   C22       1.0  0.819981174716009  0.413417545386795  0.5627193801944015  1.0000
  C   C23       1.0  0.8035764145436757  0.5171617572036721  0.48829879018520356  1.0000
  C   C24       1.0  0.8289611038063247  0.5151740799689728  0.3894185099191616  1.0000
  C   C25       1.0  0.8706896652179325  0.40909422989316524  0.3629618558601859  1.0000
  C   C26       1.0  0.8878003373841016  0.30608871751853894  0.43730932525986493  1.0000
  C   C27       1.0  0.8624530308881624  0.3079674423437997  0.536232859547003  1.0000
  C   C28       1.0  0.8986304591075039  0.4078960235121119  0.25876167316640575  1.0000
  C   C29       1.0  0.9761178430603741  0.40366332730019994  0.2510790714562898  1.0000
  C   C30       1.0  0.0059863109041047285  0.41054782872275153  0.15485534759568756  1.0000
  C   C31       1.0  0.9589951349750537  0.4220216791427105  0.06500778704007382  1.0000
  C   C32       1.0  0.8818892620499549  0.4250405101722643  0.07094765606867814  1.0000
  C   C33       1.0  0.8504395823136178  0.4165338887488936  0.1671573854414617  1.0000
  H   H15       1.0  0.7917761285700492  0.3120447279660208  0.812652820678089  1.0000
  H   H16       1.0  0.7712619891770321  0.6000376995510799  0.5064889293633796  1.0000
  H   H17       1.0  0.816186443487144  0.5964498535199725  0.3334283075711214  1.0000
  H   H18       1.0  0.920426395063786  0.22388360037458388  0.4184378841524443  1.0000
  H   H19       1.0  0.8761881222517716  0.22682952768649536  0.5919049274915791  1.0000
  H   H20       1.0  0.013651823706358764  0.3973282884540805  0.320025352387241  1.0000
  H   H21       1.0  0.0657507913489761  0.40797244029603213  0.1499739108556084  1.0000
  H   H22       1.0  0.98233836082912  0.42774674498197673  0.9904413441082661  1.0000
  H   H23       1.0  0.8467089413958468  0.4316545342707407  0.9998154204154405  1.0000
  H   H24       1.0  0.6675369552175555  0.4617811171078639  0.08262690426260912  1.0000
  Zn  Zn1       1.0  0.7537995532615962  0.4149772280619435  0.8649399068299333  1.0000
  Zn  Zn2       1.0  0.9166140952829276  0.4149735703163002  0.8649364173925687  1.0000
  C   C34       1.0  0.8446796385286561  0.4107727960933754  0.05290522691432633  1.0000
  C   C35       1.0  0.8257357933580686  0.419179640863073  0.6769711984271631  1.0000
  C   C36       1.0  0.8350465680272687  0.6520710997064396  0.8608583118241308  1.0000
  C   C37       1.0  0.8353688107602046  0.17787977772883565  0.8690181682490019  1.0000
  O   O1        1.0  0.889454365010871  0.4211064007111512  0.7153138276038937  1.0000
  O   O2        1.0  0.9045335218764493  0.4088422791632933  0.014559652991097185  1.0000
  O   O3        1.0  0.8967539166226213  0.6036937165003851  0.8594804104295072  1.0000
  O   O4        1.0  0.8972339108204865  0.22625497226472266  0.8703929930021199  1.0000
  O   O5        1.0  0.7731796821631518  0.6036958261161547  0.8594833312161598  1.0000
  O   O6        1.0  0.7809592849553456  0.40884594830286874  0.014562519041884214  1.0000
  O   O7        1.0  0.7658800657788102  0.42111001822973476  0.7153154563055033  1.0000
  O   O8        1.0  0.7736596154717534  0.22625858089527617  0.8703946988628717  1.0000
