data_image0
_chemical_formula_structural       NC9NC3OH6C6OCH8C6NH7Zn2C4O8
_chemical_formula_sum              "N3 C29 O10 H21 Zn2"
_cell_length_a       15.78231758774541
_cell_length_b       9.273888216677433
_cell_length_c       9.274774538082513
_cell_angle_alpha    85.2669921481321
_cell_angle_beta     90.43038941912484
_cell_angle_gamma    89.05820199757645

_space_group_name_H-M_alt    "P 1"
_space_group_IT_number       1

loop_
  _space_group_symop_operation_xyz
  'x, y, z'

loop_
  _atom_site_type_symbol
  _atom_site_label
  _atom_site_symmetry_multiplicity
  _atom_site_fract_x
  _atom_site_fract_y
  _atom_site_fract_z
  _atom_site_occupancy
  N   N1        1.0  0.7828742277406737  0.5832095023638652  0.4162323524995307  1.0000
  C   C1        1.0  0.7349747712139078  0.4918511537577228  0.44267472853830103  1.0000
  C   C2        1.0  0.6755056319043218  0.37845323307958867  0.4754965339557935  1.0000
  C   C3        1.0  0.6961542220647247  0.23600794246370918  0.516637764259087  1.0000
  C   C4        1.0  0.6199017993497586  0.166972654148265  0.5366592621977411  1.0000
  C   C5        1.0  0.5573915587125443  0.27239807084795703  0.5062559171417086  1.0000
  C   C6        1.0  0.4644358383505347  0.2529056309908184  0.5119790089908884  1.0000
  C   C7        1.0  0.40986298946814526  0.37242015843677895  0.4773296098945978  1.0000
  C   C8        1.0  0.32176744352216563  0.35643675550135856  0.482030365548078  1.0000
  C   C9        1.0  0.26647398014940493  0.4794287002426423  0.44636366011456485  1.0000
  N   N2        1.0  0.22203103505823948  0.5782983682054379  0.4176907997572152  1.0000
  C   C10       1.0  0.28756469944218216  0.22076092477061726  0.5214343490684252  1.0000
  C   C11       1.0  0.3412049221367552  0.10149344791771232  0.556016953461701  1.0000
  C   C12       1.0  0.4291178483810845  0.1170377734938375  0.5514439216742899  1.0000
  O   O1        1.0  0.5929849304159375  0.39734184046130233  0.47011569686869237  1.0000
  H   H1        1.0  0.7589469385285335  0.18797077436391701  0.5304555547751053  1.0000
  H   H2        1.0  0.6119554351403119  0.05346157444309729  0.5694605480491055  1.0000
  H   H3        1.0  0.4357370075618123  0.4780000579197279  0.44666107680028255  1.0000
  H   H4        1.0  0.2195423602533919  0.2072238337078871  0.5254132860429217  1.0000
  H   H5        1.0  0.31459558948224436  0.9966353433054962  0.5864762912809431  1.0000
  H   H6        1.0  0.46885860736483603  0.022569452455758483  0.5788449477304993  1.0000
  C   C13       1.0  0.00493938388712722  0.15727685144609005  0.4154953554624219  1.0000
  C   C14       1.0  0.9846825173159595  0.24188793462279426  0.2865240561035636  1.0000
  C   C15       1.0  0.9572373341330355  0.17854271226307789  0.1631908172361567  1.0000
  C   C16       1.0  0.9498906182564842  0.027598747532933357  0.1683648932421246  1.0000
  C   C17       1.0  0.9710241145177283  0.9418069150636275  0.2945630587552486  1.0000
  C   C18       1.0  0.999974055593599  0.004219742158082748  0.4184402509983275  1.0000
  O   O2        1.0  0.9375094889887376  0.26927805766157964  0.03846415315132344  1.0000
  C   C19       1.0  0.9087445324356566  0.21983089299800618  0.9055576795112213  1.0000
  H   H7        1.0  0.013133420070552841  0.2307791869108773  0.7706692021927222  1.0000
  H   H8        1.0  0.9882458603788208  0.3587608806784235  0.28225822874844675  1.0000
  H   H9        1.0  0.9286353873958979  0.975211746091792  0.0749572012164963  1.0000
  H   H10       1.0  0.9666190731332811  0.8253919403352157  0.2940678763579154  1.0000
  H   H11       1.0  0.009040032690487797  0.7031147640838159  0.6566753490377714  1.0000
  H   H12       1.0  0.8479973198048537  0.16224147354671112  0.9219884060296097  1.0000
  H   H13       1.0  0.9572363875318193  0.14705688745795517  0.8624447090254566  1.0000
  H   H14       1.0  0.8981483523696361  0.31432915144792506  0.8257338044097453  1.0000
  C   C20       1.0  0.0009143403673021985  0.5844536450327902  0.9931592606900281  1.0000
  C   C21       1.0  0.060459839010530425  0.6688822037482145  0.060391073517234155  1.0000
  C   C22       1.0  0.12387662665244713  0.7413892157064648  0.9800927807809803  1.0000
  C   C23       1.0  0.1282630648809262  0.7297939699187466  0.8310895582250523  1.0000
  C   C24       1.0  0.06897081014230538  0.6485391346547604  0.7621671315594689  1.0000
  C   C25       1.0  0.00399911043347578  0.5770429112887556  0.8407763383495288  1.0000
  N   N3        1.0  0.18439611090421548  0.8256062703027691  0.05033237181021355  1.0000
  H   H15       1.0  0.8759029821339875  0.30396828363387307  0.11767873555648789  1.0000
  H   H16       1.0  0.05889439923069074  0.6757386663796077  0.1764299184489846  1.0000
  H   H17       1.0  0.17723037186753565  0.7849590147926202  0.7679162198538432  1.0000
  H   H18       1.0  0.07277300312868529  0.6444855548463442  0.6459926831010846  1.0000
  H   H19       1.0  0.9171713352061138  0.39254537838648124  0.5737576643862399  1.0000
  H   H20       1.0  0.18188236540229952  0.8346770386434239  0.16172556685951456  1.0000
  H   H21       1.0  0.2321469750743791  0.8796509654891438  0.9914397131622174  1.0000
  Zn  Zn1       1.0  0.9096054452672641  0.5817883303293816  0.416661542837202  1.0000
  Zn  Zn2       1.0  0.09529990097698188  0.5797076673032655  0.4172733662229669  1.0000
  C   C26       1.0  0.0034478174327092766  0.5726988310348795  0.6805385811990381  1.0000
  C   C27       1.0  0.0014595464374291796  0.588798962182973  0.15339648252014723  1.0000
  C   C28       1.0  0.0008873315788302539  0.8441798385617612  0.4121325079813163  1.0000
  C   C29       1.0  0.004019979364264568  0.3173162221131421  0.421802626448437  1.0000
  O   O3        1.0  0.07211263764574638  0.5894613982258519  0.20740571986236797  1.0000
  O   O4        1.0  0.07373252629680915  0.5704561356341289  0.6269932844187798  1.0000
  O   O5        1.0  0.07166395707908735  0.7896804800820378  0.4102534833616977  1.0000
  O   O6        1.0  0.07418114304423337  0.37023706574999937  0.4241454125357964  1.0000
  O   O7        1.0  0.930724139831572  0.791258932594312  0.40978949630800116  1.0000
  O   O8        1.0  0.9327926986078958  0.5720363214010167  0.6265292264381432  1.0000
  O   O9        1.0  0.9311728039929569  0.5910415489097327  0.2069399265501756  1.0000
  O   O10       1.0  0.9332413098422377  0.3718172051734885  0.42367972739088655  1.0000
