data_image0
_chemical_formula_structural       NC5OC5NC4H8C6BrH5C9H10Zn2C4O8
_chemical_formula_sum              "N2 C33 O9 H23 Br1 Zn2"
_cell_length_a       19.189071930511275
_cell_length_b       9.276564384272257
_cell_length_c       10.297187173949778
_cell_angle_alpha    85.51933545767109
_cell_angle_beta     89.95213100257865
_cell_angle_gamma    90.57707898574843

_space_group_name_H-M_alt    "P 1"
_space_group_IT_number       1

loop_
  _space_group_symop_operation_xyz
  'x, y, z'

loop_
  _atom_site_type_symbol
  _atom_site_label
  _atom_site_symmetry_multiplicity
  _atom_site_fract_x
  _atom_site_fract_y
  _atom_site_fract_z
  _atom_site_occupancy
  N   N1        1.0  0.6643641875244373  0.5778611843926615  0.565510638673117  1.0000
  C   C1        1.0  0.6101648581677276  0.6290692563795448  0.5471758161159601  1.0000
  C   C2        1.0  0.5427478719583526  0.6927635646271083  0.5243700527441688  1.0000
  C   C3        1.0  0.5336087079729791  0.8003761977203379  0.4228473715752763  1.0000
  C   C4        1.0  0.46812075170336565  0.8623281975451941  0.40082006591205427  1.0000
  C   C5        1.0  0.4111129438002523  0.8165524102242128  0.47895993794910763  1.0000
  O   O1        1.0  0.34647449144150166  0.882536696938792  0.4546641285336773  1.0000
  C   C6        1.0  0.2811710029331871  0.8163418495217174  0.478395761155366  1.0000
  C   C7        1.0  0.2248271096226978  0.9025026405864938  0.5085965118938267  1.0000
  C   C8        1.0  0.1587173288878349  0.8408677512066778  0.5314744353782641  1.0000
  C   C9        1.0  0.148288901763753  0.6922698747745013  0.5230459923426147  1.0000
  C   C10       1.0  0.08023194757248411  0.6287972465748581  0.5464462022346217  1.0000
  N   N2        1.0  0.025518157901474103  0.577767461248976  0.5652593692532686  1.0000
  C   C11       1.0  0.2041583272390343  0.6057665050724437  0.4909276711048107  1.0000
  C   C12       1.0  0.2702594539749966  0.6674451963563351  0.468093359628285  1.0000
  C   C13       1.0  0.42073883813742136  0.7099423041546231  0.5821006086196134  1.0000
  C   C14       1.0  0.4862178438983649  0.6479857549748125  0.6041893100379979  1.0000
  H   H1        1.0  0.5770506761488744  0.8364701589054837  0.3609142096554945  1.0000
  H   H2        1.0  0.4615166312786474  0.9456415894290097  0.32226868183143154  1.0000
  H   H3        1.0  0.2324291797541367  0.017515603503374333  0.5150861183558157  1.0000
  H   H4        1.0  0.1157997892434001  0.9090151626025685  0.5555316819292961  1.0000
  H   H5        1.0  0.19655095955177196  0.49092339510011795  0.48286271678238224  1.0000
  H   H6        1.0  0.3124698595433988  0.5995290685841987  0.44062141743808714  1.0000
  H   H7        1.0  0.3780171840647201  0.6762664531805078  0.6464857191321383  1.0000
  H   H8        1.0  0.49283400081228207  0.565836055902436  0.6838315378812365  1.0000
  C   C15       1.0  0.8428448473349286  0.15433396705861013  0.5657186269053838  1.0000
  C   C16       1.0  0.8339429241801176  0.23781934363135476  0.447001544075454  1.0000
  C   C17       1.0  0.8315262483915384  0.17281503186332303  0.329388883558557  1.0000
  C   C18       1.0  0.8379965502898408  0.02340603933461116  0.3282600625343082  1.0000
  C   C19       1.0  0.845671230081303  0.9382274067516447  0.44518270285382133  1.0000
  C   C20       1.0  0.8470441334823146  0.0012835910742903254  0.5650625594439029  1.0000
  Br  Br1       1.0  0.8352029537526121  0.9350269394151302  0.1668745793959998  1.0000
  H   H9        1.0  0.8223588118524874  0.4169205354778276  0.776916482122549  1.0000
  H   H10       1.0  0.8305044194748553  0.3544763243255773  0.44478011633501807  1.0000
  H   H11       1.0  0.8252857622247243  0.2390245209406752  0.23891154563576555  1.0000
  H   H12       1.0  0.8488962627108552  0.8219862051459218  0.4423798762516533  1.0000
  H   H13       1.0  0.885438382013707  0.7033686119988379  0.7673484995618489  1.0000
  C   C21       1.0  0.8450363591811503  0.5777566416285538  0.1839374379208747  1.0000
  C   C22       1.0  0.774610377077511  0.617384739533503  0.18047398549316143  1.0000
  C   C23       1.0  0.738529069500555  0.6376871402546849  0.0620831531474515  1.0000
  C   C24       1.0  0.7743373686201307  0.6175378043268756  0.9452513323892173  1.0000
  C   C25       1.0  0.8448526254805587  0.5778609727872569  0.9468437950358575  1.0000
  C   C26       1.0  0.8797416230238561  0.5582280749990225  0.06657594428863933  1.0000
  C   C27       1.0  0.6623582923444882  0.680547465379491  0.06776935205857604  1.0000
  C   C28       1.0  0.6132827766926015  0.622556676668821  0.9675763811736533  1.0000
  C   C29       1.0  0.6347940697711064  0.7816467201426011  0.9563392315487875  1.0000
  H   H14       1.0  0.8721756895799282  0.5624997511481205  0.5128094162042964  1.0000
  H   H15       1.0  0.7474221394368703  0.6326837208201829  0.2705592607258343  1.0000
  H   H16       1.0  0.747903552336991  0.6324085578466725  0.8526511626514967  1.0000
  H   H17       1.0  0.9340766071846989  0.5276534476932635  0.06852072399908038  1.0000
  H   H18       1.0  0.978033355294519  0.5029041578108147  0.7426363761231909  1.0000
  H   H19       1.0  0.6378758714832603  0.6943247179369818  0.1638530498738664  1.0000
  H   H20       1.0  0.6365603625000706  0.5574611531546081  0.8930853946620793  1.0000
  H   H21       1.0  0.5590240314247531  0.6030580288726463  0.0027477591612947746  1.0000
  H   H22       1.0  0.6711389307631276  0.8131895184679674  0.875023219390609  1.0000
  H   H23       1.0  0.5931071087290972  0.8551296326387389  0.984940573355753  1.0000
  Zn  Zn1       1.0  0.7685854099201253  0.5778302918416706  0.5654456264248955  1.0000
  Zn  Zn2       1.0  0.9212968920539796  0.5777866022667837  0.5653350113248916  1.0000
  C   C30       1.0  0.8448573094926702  0.5720962636270945  0.8026426058695977  1.0000
  C   C31       1.0  0.8450266690769674  0.5835224495806596  0.3281381567575095  1.0000
  C   C32       1.0  0.8462480361869071  0.8411913994408073  0.5600102927379047  1.0000
  C   C33       1.0  0.8436358816658764  0.31442558119727626  0.570770540522896  1.0000
  O   O2        1.0  0.9029765974033332  0.5854346360717565  0.37649126230805985  1.0000
  O   O3        1.0  0.9028118572988191  0.5701498298031893  0.7542051729316304  1.0000
  O   O4        1.0  0.9039341051302405  0.7874475555534028  0.5582778628183638  1.0000
  O   O5        1.0  0.9018542975364329  0.3681369206392008  0.5724184750548988  1.0000
  O   O6        1.0  0.7880279523247475  0.787479973485733  0.5583621627258015  1.0000
  O   O7        1.0  0.7869057130972553  0.5701839803216666  0.7542894022362892  1.0000
  O   O8        1.0  0.7870704533750914  0.5854687361234903  0.3765739299059374  1.0000
  O   O9        1.0  0.7859481534307451  0.36817101038975464  0.5725012400501182  1.0000
