data_image0
_chemical_formula_structural       NC5NC3F3CH3C6BrH5C6NCH7Zn2C4O8
_chemical_formula_sum              "N3 C26 F3 H15 Br1 Zn2 O8"
_cell_length_a       13.85151926108384
_cell_length_b       9.276564384272257
_cell_length_c       9.273390368590327
_cell_angle_alpha    86.11919172510322
_cell_angle_beta     89.99084653650657
_cell_angle_gamma    90.58593481197379

_space_group_name_H-M_alt    "P 1"
_space_group_IT_number       1

loop_
  _space_group_symop_operation_xyz
  'x, y, z'

loop_
  _atom_site_type_symbol
  _atom_site_label
  _atom_site_symmetry_multiplicity
  _atom_site_fract_x
  _atom_site_fract_y
  _atom_site_fract_z
  _atom_site_occupancy
  N   N1        1.0  0.9199452653433672  0.5613236464122847  0.4088729836845266  1.0000
  C   C1        1.0  0.8475514323697162  0.5529077163862623  0.4713347307153233  1.0000
  C   C2        1.0  0.7574878063631504  0.5424371492422946  0.5490460795753977  1.0000
  C   C3        1.0  0.6700274812130823  0.5508558588593415  0.47352874949079427  1.0000
  C   C4        1.0  0.5824358167699336  0.5424371358841846  0.5490460595320282  1.0000
  C   C5        1.0  0.4925321803578219  0.552907733534469  0.4713348247502609  1.0000
  N   N2        1.0  0.4202670794670201  0.5613236096454499  0.4088730891482348  1.0000
  C   C6        1.0  0.5822883742460326  0.5246036477232991  0.7002575528060786  1.0000
  C   C7        1.0  0.6697358852375634  0.5130086870694572  0.7770394310403497  1.0000
  C   C8        1.0  0.6696236710333892  0.49916400443064046  0.9400409343108509  1.0000
  F   F1        1.0  0.7500439495200689  0.4249008922986091  0.9916955461318527  1.0000
  F   F2        1.0  0.5881751346463987  0.42490086275535416  0.9916956454344958  1.0000
  F   F3        1.0  0.6705520114734375  0.6355213522903191  0.9916353860740824  1.0000
  C   C9        1.0  0.757358700433944  0.5246035526826602  0.7002575724994413  1.0000
  H   H1        1.0  0.6701356492376274  0.5648233707949701  0.35645531307852596  1.0000
  H   H2        1.0  0.5141276962904625  0.5200383017962049  0.7579024417448021  1.0000
  H   H3        1.0  0.8254444492570467  0.5200382204649427  0.7579024007803645  1.0000
  C   C10       1.0  0.16720212272271673  0.13784659411551625  0.4092415732252366  1.0000
  C   C11       1.0  0.15483461580831737  0.219946250282923  0.27751196644799014  1.0000
  C   C12       1.0  0.15145172431762077  0.15357082201029493  0.14701278090813985  1.0000
  C   C13       1.0  0.16041497116809245  0.004150406734095833  0.14576529181462816  1.0000
  C   C14       1.0  0.17108179250133929  0.9203362567167289  0.27550292434522894  1.0000
  C   C15       1.0  0.1730193761035986  0.9847896966285887  0.40851687502858103  1.0000
  Br  Br1       1.0  0.1564969009610904  0.9138900309356303  0.9666976084335063  1.0000
  H   H4        1.0  0.13888474571638354  0.4028886452006821  0.6435606797330489  1.0000
  H   H5        1.0  0.15007044955458326  0.33657642624723083  0.2750445225919034  1.0000
  H   H6        1.0  0.1427796146676306  0.21872436346260105  0.04661868425194715  1.0000
  H   H7        1.0  0.17554873306782495  0.8040632581052436  0.27239553375863057  1.0000
  H   H8        1.0  0.22626869346368905  0.6892421047789133  0.6329932166661392  1.0000
  C   C16       1.0  0.17012460589012557  0.5568211867664012  0.9856373239395889  1.0000
  C   C17       1.0  0.2587732334378663  0.55395586844492  0.05924227376357871  1.0000
  C   C18       1.0  0.3459673624274991  0.5644961202198642  0.9838184792656675  1.0000
  C   C19       1.0  0.34672910473406593  0.5782923640205755  0.8321786864574685  1.0000
  C   C20       1.0  0.2586522096038098  0.5787257007686042  0.7577662155678868  1.0000
  C   C21       1.0  0.17009691183424197  0.5658151594262257  0.8321211630603376  1.0000
  N   N3        1.0  0.4355663379061917  0.5904930281261831  0.7513799884148815  1.0000
  C   C22       1.0  0.5308865560057495  0.5906629902251481  0.8183680540942588  1.0000
  H   H9        1.0  0.017270180824816572  0.48755043542905363  0.27153656716614805  1.0000
  H   H10       1.0  0.41247465876626876  0.5631691591125307  0.04494062834216494  1.0000
  H   H11       1.0  0.9443408266899307  0.4537810083739498  0.7367259054882939  1.0000
  H   H12       1.0  0.4324995760927872  0.6000502901960255  0.6384959772295282  1.0000
  H   H13       1.0  0.5377874258422958  0.6831704513069445  0.8877574387220015  1.0000
  H   H14       1.0  0.5419545340105829  0.4875810228931567  0.8840101931743267  1.0000
  H   H15       1.0  0.5875376889702366  0.6015648784026442  0.7334681673872189  1.0000
  Zn  Zn1       1.0  0.06432730681675691  0.5613198742620567  0.40888132483281336  1.0000
  Zn  Zn2       1.0  0.2758849393629925  0.5613157442785885  0.4088765095643896  1.0000
  C   C23       1.0  0.1700605135040365  0.5583701625845947  0.672122514803015  1.0000
  C   C24       1.0  0.1701540553714378  0.5642672769589396  0.14563545944662515  1.0000
  C   C25       1.0  0.17191500676576607  0.8246384210027067  0.4029105095417167  1.0000
  C   C26       1.0  0.16829947801708728  0.2979972867779684  0.4148475430327696  1.0000
  O   O1        1.0  0.25044891468377495  0.5667583942267105  0.1993304733374215  1.0000
  O   O2        1.0  0.25033299472522974  0.5558748184497895  0.6184234322726564  1.0000
  O   O3        1.0  0.25182943915781464  0.7708898204885035  0.4010328320462493  1.0000
  O   O4        1.0  0.24895239813529457  0.3517434013571825  0.4167209654905706  1.0000
  O   O5        1.0  0.09125977585022871  0.7708922171863613  0.40103686890069357  1.0000
  O   O6        1.0  0.08976334331603857  0.5558789469134047  0.6184273907963154  1.0000
  O   O7        1.0  0.08987926305036932  0.5667624540259923  0.19933269906690532  1.0000
  O   O8        1.0  0.08838274642355849  0.3517474519901768  0.4167232992873744  1.0000
