data_image0
_chemical_formula_structural       NC5NC3BrH3C7NH5C6ClH5Zn2C4O8
_chemical_formula_sum              "N3 C25 Br1 H13 Cl1 Zn2 O8"
_cell_length_a       13.839083392302014
_cell_length_b       9.275154477615127
_cell_length_c       10.302974078461048
_cell_angle_alpha    85.7869106659326
_cell_angle_beta     90.00087565585007
_cell_angle_gamma    89.45968127068964

_space_group_name_H-M_alt    "P 1"
_space_group_IT_number       1

loop_
  _space_group_symop_operation_xyz
  'x, y, z'

loop_
  _atom_site_type_symbol
  _atom_site_label
  _atom_site_symmetry_multiplicity
  _atom_site_fract_x
  _atom_site_fract_y
  _atom_site_fract_z
  _atom_site_occupancy
  N   N1        1.0  0.8994453477004347  0.5784977929955624  0.5735816278580663  1.0000
  C   C1        1.0  0.8278641764476742  0.5148649002527323  0.5755739283491352  1.0000
  C   C2        1.0  0.738679213072103  0.43568358065872476  0.5780528969551562  1.0000
  C   C3        1.0  0.6506181398322454  0.5118732021751136  0.575667765826535  1.0000
  C   C4        1.0  0.5630662914666128  0.43715610288685364  0.5780067453296049  1.0000
  C   C5        1.0  0.4727872263785525  0.5156968001842661  0.5755478684382864  1.0000
  N   N2        1.0  0.40021454632988795  0.5788373635051669  0.5735709467075523  1.0000
  C   C6        1.0  0.5635117461043738  0.2859379216383997  0.5827406495188434  1.0000
  C   C7        1.0  0.6511285764914526  0.20962704895340536  0.5851294941813934  1.0000
  C   C8        1.0  0.738881181473378  0.28363012106295793  0.5828128855591028  1.0000
  Br  Br1       1.0  0.8570130608880427  0.17355473750409692  0.5862588892390899  1.0000
  H   H1        1.0  0.6502178597258208  0.6290544944991872  0.5719992111190613  1.0000
  H   H2        1.0  0.49620695535008696  0.22709332566621399  0.5845825459059275  1.0000
  H   H3        1.0  0.6507640094138797  0.0926949291392609  0.5887899086382351  1.0000
  C   C9        1.0  0.1526307395867217  0.15528016817274692  0.5720739269813313  1.0000
  C   C10       1.0  0.1261077162540698  0.2384412724029683  0.45760804877827166  1.0000
  C   C11       1.0  0.09172509994146716  0.17237953755259183  0.3492057959136794  1.0000
  C   C12       1.0  0.083299381560892  0.022253299539072294  0.3539927531000435  1.0000
  C   C13       1.0  0.11071797532638651  0.9378851275966693  0.4658494408478842  1.0000
  C   C14       1.0  0.14703847710378937  0.002043894326560154  0.5750898985288231  1.0000
  C   C15       1.0  0.06391653584123258  0.2591215824760049  0.23336032593810585  1.0000
  N   N3        1.0  0.04156616391715871  0.3288462857835046  0.14025024161546562  1.0000
  H   H4        1.0  0.17136644383142485  0.23196392011795108  0.8907463471402324  1.0000
  H   H5        1.0  0.13005390594081412  0.3554033485487438  0.4537558999354989  1.0000
  H   H6        1.0  0.056359310906321174  0.9701084595854502  0.27067882452580383  1.0000
  H   H7        1.0  0.10564399022828064  0.8214140911278431  0.46573529587352214  1.0000
  H   H8        1.0  0.16375418848142534  0.7032849767843601  0.7886093960104362  1.0000
  C   C16       1.0  0.1498346141952842  0.5786620394775275  0.19233939988134519  1.0000
  C   C17       1.0  0.13401549552700187  0.4289037459695846  0.20104007049034858  1.0000
  C   C18       1.0  0.12616652990230626  0.3545977597345975  0.08840031472239818  1.0000
  C   C19       1.0  0.13401553820560386  0.4289038274239139  0.965932171808336  1.0000
  C   C20       1.0  0.14983461222207772  0.5786619650529881  0.9548244186897442  1.0000
  C   C21       1.0  0.15766707759092236  0.6528111342422054  0.06867809890892573  1.0000
  Cl  Cl1       1.0  0.10640469574821743  0.16751407375344396  0.10077306204847702  1.0000
  H   H9        1.0  0.1557939603229621  0.6350734041941983  0.5163649465129794  1.0000
  H   H10       1.0  0.12772387576702915  0.36934137548934176  0.29502576008520354  1.0000
  H   H11       1.0  0.12772394342519844  0.3693413549621887  0.8798247939365851  1.0000
  H   H12       1.0  0.16986721336622668  0.7683092251118799  0.0610395555586194  1.0000
  H   H13       1.0  0.15579377653929846  0.6350733913108255  0.6233373159900717  1.0000
  Zn  Zn1       1.0  0.04395654969594687  0.5785919201335343  0.5735860347057835  1.0000
  Zn  Zn2       1.0  0.25570341452039536  0.5787314190001611  0.5735771521409565  1.0000
  C   C22       1.0  0.14987037647245205  0.5729183010684846  0.8106779392720413  1.0000
  C   C23       1.0  0.1497918879988218  0.5844068587479969  0.3364853813812274  1.0000
  C   C24       1.0  0.14809055602552035  0.8419875031861731  0.5693463276094277  1.0000
  C   C25       1.0  0.15157164763137737  0.31533592436905167  0.5778170560928961  1.0000
  O   O1        1.0  0.23013442191062072  0.5863815216859438  0.3848586962722005  1.0000
  O   O2        1.0  0.23023882065673584  0.5710484268761404  0.7622975051238272  1.0000
  O   O3        1.0  0.22880050988837985  0.7883252097169551  0.5674205266300116  1.0000
  O   O4        1.0  0.23157266035600288  0.3691047491113335  0.5797355774633932  1.0000
  O   O5        1.0  0.06808723160151642  0.7882185899763279  0.5674276093795543  1.0000
  O   O6        1.0  0.06952553092542546  0.5709435393507356  0.7623045248205229  1.0000
  O   O7        1.0  0.06942113257542437  0.5862765839184845  0.38486415490685455  1.0000
  O   O8        1.0  0.070859371084957  0.3689998010316353  0.5797411333968787  1.0000
