data_image0
_chemical_formula_structural       NC9NC3OH6C7ONH7C6NO2H3Zn2C4O8
_chemical_formula_sum              "N4 C29 O12 H16 Zn2"
_cell_length_a       15.78231758774541
_cell_length_b       10.297852080636378
_cell_length_c       9.273395971720356
_cell_angle_alpha    84.96325203877277
_cell_angle_beta     89.96902430017013
_cell_angle_gamma    89.61065309411966

_space_group_name_H-M_alt    "P 1"
_space_group_IT_number       1

loop_
  _space_group_symop_operation_xyz
  'x, y, z'

loop_
  _atom_site_type_symbol
  _atom_site_label
  _atom_site_symmetry_multiplicity
  _atom_site_fract_x
  _atom_site_fract_y
  _atom_site_fract_z
  _atom_site_occupancy
  N   N1        1.0  0.7993281410431473  0.4284728237338648  0.410291131150065  1.0000
  C   C1        1.0  0.7507861206303785  0.34614278124571074  0.43705892276916436  1.0000
  C   C2        1.0  0.6905194014898872  0.24395118273078253  0.4702846481375409  1.0000
  C   C3        1.0  0.7101665242193469  0.11558289695555526  0.5119332406329082  1.0000
  C   C4        1.0  0.6334283555999537  0.05336982147832582  0.5322006508952817  1.0000
  C   C5        1.0  0.5716590964368455  0.1483766131727986  0.5014218134513659  1.0000
  C   C6        1.0  0.47856589299420366  0.13081035043385783  0.5072143585623303  1.0000
  C   C7        1.0  0.4248339151822248  0.23851418178136566  0.4721392370038247  1.0000
  C   C8        1.0  0.3366255984100277  0.22411019264366708  0.4768969450435754  1.0000
  C   C9        1.0  0.2821975154449632  0.3349478090145308  0.44079212779489246  1.0000
  N   N2        1.0  0.23845023138429441  0.4240469660349424  0.4117670816349097  1.0000
  C   C10       1.0  0.3014679501331495  0.1018420488807348  0.5167842377149747  1.0000
  C   C11       1.0  0.3542690171149456  0.9943608466433783  0.5517916858474059  1.0000
  C   C12       1.0  0.4422916229389486  0.008369148386598637  0.5471632658249745  1.0000
  O   O1        1.0  0.6081311446432026  0.2609730294631849  0.4648365535419652  1.0000
  H   H1        1.0  0.7726217797574358  0.07229303724752788  0.5259221150039322  1.0000
  H   H2        1.0  0.6246838673886587  0.9510763280987957  0.5654062454783972  1.0000
  H   H3        1.0  0.4514510431132649  0.33366052689373293  0.44109460212509716  1.0000
  H   H4        1.0  0.23335011117771293  0.08964264078737494  0.5208114096965226  1.0000
  H   H5        1.0  0.3269216526598794  0.8998649668981271  0.5826245543646695  1.0000
  H   H6        1.0  0.4813676677263117  0.9232363808126564  0.5749008007797409  1.0000
  C   C13       1.0  0.01898354495126008  0.04482172643125672  0.41103803023383545  1.0000
  C   C14       1.0  0.0075584647309567795  0.055894264463986605  0.2601882981139536  1.0000
  C   C15       1.0  0.0010167378049521498  0.9444222238351754  0.18381576864733584  1.0000
  C   C16       1.0  0.007344311574114523  0.8206446825750555  0.2601377756663541  1.0000
  C   C17       1.0  0.01880286863679713  0.8076878895174657  0.41103262302202004  1.0000
  C   C18       1.0  0.024346953281613175  0.9203074640068645  0.48553033024900016  1.0000
  C   C19       1.0  0.9891597476092375  0.9587157586069011  0.024469572275318097  1.0000
  O   O2        1.0  0.011878733709910444  0.06226848233211202  0.9526572082540876  1.0000
  N   N3        1.0  0.9513889172391187  0.857988811581418  0.9498084862992119  1.0000
  H   H7        1.0  0.040883896666246144  0.23116570966290384  0.6960685469670826  1.0000
  H   H8        1.0  0.002982652730838978  0.15161523325131676  0.20198083644614795  1.0000
  H   H9        1.0  0.005013258112511742  0.7340134527712336  0.2022299111354291  1.0000
  H   H10       1.0  0.03315029095852238  0.9110201935114196  0.6017920860326624  1.0000
  H   H11       1.0  0.041817390009394106  0.5759327233488412  0.6959353364982168  1.0000
  H   H12       1.0  0.9472479830475421  0.868163969826853  0.8370004751271383  1.0000
  H   H13       1.0  0.9223894908208423  0.7776227325168774  0.005181906108617799  1.0000
  C   C20       1.0  0.01937446099201301  0.4302403067266044  0.9871002318246326  1.0000
  C   C21       1.0  0.9438472703688886  0.4606490458299384  0.057432891271643964  1.0000
  C   C22       1.0  0.8680858160497419  0.4787781334129817  0.9807487172192512  1.0000
  C   C23       1.0  0.8657022495500558  0.4668689411248355  0.8314461422961812  1.0000
  C   C24       1.0  0.9411836335862315  0.43868633935851387  0.7596756370602264  1.0000
  C   C25       1.0  0.01841196156892287  0.42226930370715765  0.834970495623931  1.0000
  N   N4        1.0  0.787148888798731  0.484593296173161  0.7530445025654946  1.0000
  O   O3        1.0  0.713507273437126  0.5132505489456343  0.8235714043122124  1.0000
  O   O4        1.0  0.7844529674163907  0.47391593714218866  0.6200399659749984  1.0000
  H   H14       1.0  0.20481698683543148  0.2828550162494927  0.10414638553395372  1.0000
  H   H15       1.0  0.8110563087804662  0.5008912638906107  0.03893988313064822  1.0000
  H   H16       1.0  0.144849518638408  0.3268227747690922  0.5639467808669751  1.0000
  Zn  Zn1       1.0  0.9260492784770696  0.4271920688893292  0.4107253884462372  1.0000
  Zn  Zn2       1.0  0.11172905457169285  0.4253170085409755  0.41134462566479235  1.0000
  C   C26       1.0  0.018593246622444104  0.41860139917059336  0.6747048722081581  1.0000
  C   C27       1.0  0.019187113494762747  0.4339092953687549  0.1473652903469418  1.0000
  C   C28       1.0  0.01883921487663676  0.6635440716488616  0.40528087786468436  1.0000
  C   C29       1.0  0.01894108216321298  0.18896506222120665  0.4167893614567162  1.0000
  O   O5        1.0  0.08958874665474553  0.4344233990745919  0.20138670536345904  1.0000
  O   O6        1.0  0.08911826788450078  0.4166631920530142  0.6211530283466491  1.0000
  O   O7        1.0  0.08931593876118432  0.6144574932823134  0.40359124351743136  1.0000
  O   O8        1.0  0.08939101253880571  0.2366291087946453  0.4189483817382387  1.0000
  O   O9        1.0  0.9483872571465701  0.6158799692770107  0.4031216321538822  1.0000
  O   O10       1.0  0.9481895859838569  0.4180872293583425  0.6206833399978906  1.0000
  O   O11       1.0  0.9486600667914615  0.4358474074326127  0.20091528133995085  1.0000
  O   O12       1.0  0.9484623325513907  0.23805310684466477  0.41847706595026035  1.0000
