data_image0
_chemical_formula_structural       NC9NC3SH6C6SCNH4C7NC2NH8Zn2C4O8
_chemical_formula_sum              "N5 C32 S2 H18 Zn2 O8"
_cell_length_a       16.77567553997237
_cell_length_b       10.302215558581764
_cell_length_c       9.27399911348925
_cell_angle_alpha    85.06957531056571
_cell_angle_beta     90.06803896743476
_cell_angle_gamma    90.91242892959859

_space_group_name_H-M_alt    "P 1"
_space_group_IT_number       1

loop_
  _space_group_symop_operation_xyz
  'x, y, z'

loop_
  _atom_site_type_symbol
  _atom_site_label
  _atom_site_symmetry_multiplicity
  _atom_site_fract_x
  _atom_site_fract_y
  _atom_site_fract_z
  _atom_site_occupancy
  N   N1        1.0  0.7561476042926328  0.45202299471276813  0.4159924827531374  1.0000
  C   C1        1.0  0.7012603009800009  0.5009757728450419  0.46223904175104713  1.0000
  C   C2        1.0  0.6331443689102384  0.5617229377263415  0.5196274832673309  1.0000
  C   C3        1.0  0.6349575246997934  0.6489615641745548  0.6252928814987491  1.0000
  C   C4        1.0  0.559216908745676  0.6921492657924282  0.6603264191566599  1.0000
  C   C5        1.0  0.49745481469944464  0.6387328593055486  0.5818322745452533  1.0000
  C   C6        1.0  0.4109310406267255  0.664696667509636  0.5938991654438363  1.0000
  C   C7        1.0  0.35430573493339823  0.5856363269111218  0.5290985283635832  1.0000
  C   C8        1.0  0.2726350018940076  0.6095993788342629  0.5399905654223052  1.0000
  C   C9        1.0  0.2153466356331018  0.5278832635182014  0.4736384476252718  1.0000
  N   N2        1.0  0.1693037835448  0.4621952146704181  0.42030114835011423  1.0000
  C   C10       1.0  0.24676039754167017  0.7129376432909109  0.6155042613281854  1.0000
  C   C11       1.0  0.30229574651318847  0.7921607801687099  0.6797919293811456  1.0000
  C   C12       1.0  0.383807848194982  0.7685583201624322  0.6692274001066121  1.0000
  S   S1        1.0  0.5383797852755332  0.537552080848436  0.4694323350283712  1.0000
  H   H1        1.0  0.6892032302253138  0.6804156166509883  0.6761679116244221  1.0000
  H   H2        1.0  0.5507031756316852  0.7593924008885692  0.7420134929280512  1.0000
  H   H3        1.0  0.3732730118174549  0.504815141849694  0.47078562882762715  1.0000
  H   H4        1.0  0.18375156822840497  0.7323213515096327  0.6244985252465142  1.0000
  H   H5        1.0  0.2821488209097187  0.8723733505286725  0.7377518211101066  1.0000
  H   H6        1.0  0.425102017489337  0.8327931062156524  0.718989585090626  1.0000
  C   C13       1.0  0.9626504532414119  0.07583536224837427  0.4181063111309863  1.0000
  C   C14       1.0  0.04240092632351966  0.07337312964469314  0.4643546119063036  1.0000
  C   C15       1.0  0.08208670709610512  0.9551035128115045  0.4878261671387296  1.0000
  C   C16       1.0  0.04260774338346507  0.838202060034435  0.4644789817462987  1.0000
  C   C17       1.0  0.9628084940802317  0.838372939082708  0.41819987687497795  1.0000
  C   C18       1.0  0.9232589375159147  0.9577158730278374  0.39532347082998953  1.0000
  S   S2        1.0  0.18397825617848484  0.9534862873505228  0.5462704984378508  1.0000
  C   C19       1.0  0.15707563437541167  0.9385488756690854  0.7309453948344933  1.0000
  N   N3        1.0  0.13941432856880104  0.9287559182278758  0.8520153323074204  1.0000
  H   H7        1.0  0.07399486168340008  0.16298465933766942  0.4825937510252328  1.0000
  H   H8        1.0  0.07434344296906083  0.7475346733704785  0.4828034440599163  1.0000
  H   H9        1.0  0.861752052804038  0.9587650229804769  0.35967517809286204  1.0000
  H   H10       1.0  0.8124216031654126  0.6314895518996094  0.3308208822289602  1.0000
  C   C20       1.0  0.9641070277471561  0.46046099924996686  0.9943164924153578  1.0000
  C   C21       1.0  0.026674511287796635  0.3998309026452622  0.07344602333628569  1.0000
  C   C22       1.0  0.0839629409639846  0.3298275362543943  0.005382691899587176  1.0000
  C   C23       1.0  0.08022350852541772  0.3180264909119595  0.8560458877050112  1.0000
  C   C24       1.0  0.018856298990983063  0.38087874161605156  0.7753704945471216  1.0000
  C   C25       1.0  0.9613519449911229  0.4537473351904104  0.8419896901616664  1.0000
  C   C26       1.0  0.14138935005076414  0.24188118938214248  0.7859788557178028  1.0000
  N   N4        1.0  0.20813917069663468  0.1981596851498784  0.854708320619376  1.0000
  C   C27       1.0  0.24671834667651746  0.13414513261476868  0.7557798208074735  1.0000
  C   C28       1.0  0.20317316272167818  0.13954367706053739  0.6297844016875751  1.0000
  N   N5        1.0  0.13692876144374558  0.20724090273902385  0.6489349777429845  1.0000
  H   H11       1.0  0.8792793332856161  0.6222521013071598  0.2600287885599637  1.0000
  H   H12       1.0  0.030286615429675486  0.4037835277430637  0.18963531095540548  1.0000
  H   H13       1.0  0.1307049259805808  0.2831482050073415  0.07059211029181237  1.0000
  H   H14       1.0  0.016883572141666248  0.3773171240241626  0.6592445017251567  1.0000
  H   H15       1.0  0.8369810460702648  0.5239641094262397  0.5549393507499785  1.0000
  H   H16       1.0  0.303103163453581  0.08611765030503539  0.7747303285480638  1.0000
  H   H17       1.0  0.21846644624225808  0.09656657533363136  0.5312459870071233  1.0000
  H   H18       1.0  0.09183211797865853  0.2258103050141353  0.5727616463139726  1.0000
  Zn  Zn1       1.0  0.875375527997379  0.4549549450959218  0.4172442137343126  1.0000
  Zn  Zn2       1.0  0.05007581415600205  0.45925257870297514  0.4190612688078158  1.0000
  C   C29       1.0  0.9618698632223756  0.4498439265598597  0.6817606861692143  1.0000
  C   C30       1.0  0.9635833865318625  0.46436528125797216  0.15454495807679486  1.0000
  C   C31       1.0  0.962793231830776  0.6942825805028601  0.41243072083529486  1.0000
  C   C32       1.0  0.9626599577370133  0.21992506532563952  0.4238749995479619  1.0000
  O   O1        1.0  0.02970549472133066  0.46730085919422404  0.2090086570933034  1.0000
  O   O2        1.0  0.02834123108517428  0.45016917690336666  0.6286756743134463  1.0000
  O   O3        1.0  0.029085964309638397  0.647556447439191  0.411189812622063  1.0000
  O   O4        1.0  0.02896070223714497  0.2699135973369113  0.42649440994787086  1.0000
  O   O5        1.0  0.8964905802996272  0.6442939249968881  0.4098110719665946  1.0000
  O   O6        1.0  0.8957458476450033  0.44690821498529754  0.6272968568930672  1.0000
  O   O7        1.0  0.897110116964732  0.4640398657763316  0.20762810439594692  1.0000
  O   O8        1.0  0.8963653241236593  0.26665259377540873  0.4251139654596676  1.0000
