data_image0
_chemical_formula_structural       NC5NC3F3CH3C6BrH5C7OH5Zn2C4O8
_chemical_formula_sum              "N2 C26 F3 H13 Br1 O9 Zn2"
_cell_length_a       13.85151926108384
_cell_length_b       9.276564384272257
_cell_length_c       9.274074313596556
_cell_angle_alpha    86.07032153844699
_cell_angle_beta     90.23361225849852
_cell_angle_gamma    90.58593481197379

_space_group_name_H-M_alt    "P 1"
_space_group_IT_number       1

loop_
  _space_group_symop_operation_xyz
  'x, y, z'

loop_
  _atom_site_type_symbol
  _atom_site_label
  _atom_site_symmetry_multiplicity
  _atom_site_fract_x
  _atom_site_fract_y
  _atom_site_fract_z
  _atom_site_occupancy
  N   N1        1.0  0.9154403758807343  0.5626153205026463  0.40888915127248726  1.0000
  C   C1        1.0  0.8432233881640189  0.5541486841411454  0.471350263623727  1.0000
  C   C2        1.0  0.7533797829559289  0.5436150310619754  0.549060822851638  1.0000
  C   C3        1.0  0.665705648838346  0.5520950455136733  0.47354426010557144  1.0000
  C   C4        1.0  0.578327793305965  0.5436150177201369  0.5490608028084722  1.0000
  C   C5        1.0  0.4882041364183617  0.5541487012130146  0.4713503576577094  1.0000
  N   N2        1.0  0.4157621903029823  0.5626152836501961  0.4088892567351239  1.0000
  C   C6        1.0  0.5786084693770555  0.525658776337149  0.7002707596086315  1.0000
  C   C7        1.0  0.6662733695968709  0.5140014842907106  0.7770518576551757  1.0000
  C   C8        1.0  0.6666226545357233  0.5000244773205826  0.94005170465241  1.0000
  F   F1        1.0  0.7471891805023986  0.4257194320662725  0.9917057916061498  1.0000
  F   F2        1.0  0.5853203659098793  0.42571940244240364  0.9917058909077835  1.0000
  F   F3        1.0  0.6676970721271837  0.6363399408958108  0.9916456321596716  1.0000
  C   C9        1.0  0.7536787956207243  0.5256586812805226  0.7002707793017942  1.0000
  H   H1        1.0  0.6654823518794923  0.5661575974573798  0.35647201328725875  1.0000
  H   H2        1.0  0.5106109989153513  0.5210466343914333  0.7579150628123366  1.0000
  H   H3        1.0  0.8219277517659548  0.5210465530934261  0.7579150218483148  1.0000
  C   C10       1.0  0.16269827683179242  0.1391379689855421  0.4092577370679251  1.0000
  C   C11       1.0  0.14995780954942606  0.22134456301413996  0.27752946880732865  1.0000
  C   C12       1.0  0.14620544132947266  0.1550750737489237  0.14703160928170567  1.0000
  C   C13       1.0  0.15516515621774674  0.005655671182158706  0.14578413286404568  1.0000
  C   C14       1.0  0.16619929812798162  0.9217362003847624  0.27552044711862966  1.0000
  C   C15       1.0  0.16851347840585  0.9860816598073259  0.40853304623499453  1.0000
  Br  Br1       1.0  0.15074009938322264  0.9155406622115284  0.9667182690061247  1.0000
  H   H4        1.0  0.13504431743007306  0.4039898002355542  0.643574462637744  1.0000
  H   H5        1.0  0.14518665732806424  0.3379767420449946  0.27506205002316597  1.0000
  H   H6        1.0  0.1372490901931023  0.2203101149508706  0.04663853273916341  1.0000
  H   H7        1.0  0.170657440873196  0.8054657243474451  0.27241308810651277  1.0000
  H   H8        1.0  0.22239834597386543  0.6903518384615642  0.6330071069477983  1.0000
  C   C16       1.0  0.16442142751388358  0.5584564428148368  0.9856577920640159  1.0000
  C   C17       1.0  0.0805384135159557  0.6010308089623293  0.055510208386179594  1.0000
  C   C18       1.0  0.0014889707084679877  0.65519459121935  0.9762816247315311  1.0000
  C   C19       1.0  0.004474621748304267  0.6682246903267463  0.8249904748651344  1.0000
  C   C20       1.0  0.08704218289904135  0.6239093029509799  0.7539996620701794  1.0000
  C   C21       1.0  0.16679029043202998  0.5667631702510127  0.8321330910724565  1.0000
  C   C22       1.0  0.9218301389850385  0.7263541712752279  0.7395500222411786  1.0000
  O   O1        1.0  0.8464536084557812  0.7665340385557571  0.8002219126220713  1.0000
  H   H9        1.0  0.40005515879948783  0.5217157662438867  0.09247782521025627  1.0000
  H   H10       1.0  0.9383719922412777  0.6882070020363975  0.033655024741427564  1.0000
  H   H11       1.0  0.08820884376430516  0.6308978154656906  0.6368370198585227  1.0000
  H   H12       1.0  0.32514406160918674  0.5367906213247793  0.5546929294659679  1.0000
  H   H13       1.0  0.9253183828015051  0.7351074220742844  0.622673016018048  1.0000
  Zn  Zn1       1.0  0.059822440970059176  0.5626115415810886  0.40889749233601846  1.0000
  Zn  Zn2       1.0  0.27138005988303227  0.5626074155066467  0.40889267711652355  1.0000
  C   C23       1.0  0.1663009511124791  0.5594481311724044  0.6721360074882767  1.0000
  C   C24       1.0  0.16490387283229446  0.5657726468046884  0.14565430181528116  1.0000
  C   C25       1.0  0.1673932360066304  0.8259349354190046  0.40292673771492504  1.0000
  C   C26       1.0  0.16381150406728096  0.2992841107316455  0.4148636499126832  1.0000
  O   O2        1.0  0.24535075652721883  0.5682201745553983  0.19934877010610297  1.0000
  O   O3        1.0  0.24642139643172145  0.5569963798575748  0.6184374705992353  1.0000
  O   O4        1.0  0.24730235221117353  0.7721878592000622  0.4010490792987118  1.0000
  O   O5        1.0  0.24446972832588887  0.3530287044698306  0.4167370533344661  1.0000
  O   O6        1.0  0.08673270033295967  0.7721902526208089  0.4010531161121371  1.0000
  O   O7        1.0  0.0858517562301282  0.5570005051076672  0.618441429082671  1.0000
  O   O8        1.0  0.08478111119542554  0.568224232547837  0.1993509958129709  1.0000
  O   O9        1.0  0.08390008322173026  0.35303275320825267  0.41673938710755576  1.0000
