data_image0
_chemical_formula_structural       NC9NC3OH6C9H7C6BrH3Zn2C4O8
_chemical_formula_sum              "N2 C31 O9 H16 Br1 Zn2"
_cell_length_a       15.78231758774541
_cell_length_b       9.275152443626249
_cell_length_c       10.302972455390004
_cell_angle_alpha    85.36323497079522
_cell_angle_beta     90.08385913268748
_cell_angle_gamma    90.20707041648353

_space_group_name_H-M_alt    "P 1"
_space_group_IT_number       1

loop_
  _space_group_symop_operation_xyz
  'x, y, z'

loop_
  _atom_site_type_symbol
  _atom_site_label
  _atom_site_symmetry_multiplicity
  _atom_site_fract_x
  _atom_site_fract_y
  _atom_site_fract_z
  _atom_site_occupancy
  N   N1        1.0  0.8071204180689079  0.5697870631735232  0.5655296800990399  1.0000
  C   C1        1.0  0.7580515245194771  0.47863525454998745  0.5898836503921743  1.0000
  C   C2        1.0  0.6971308281904346  0.3654937035984598  0.6201131975410559  1.0000
  C   C3        1.0  0.715956349974197  0.22336968313386962  0.6580069969175437  1.0000
  C   C4        1.0  0.638820095453136  0.15449081924335895  0.6764463417924605  1.0000
  C   C5        1.0  0.5776589671143738  0.25967886033788057  0.6484418598539792  1.0000
  C   C6        1.0  0.48445344538008106  0.24023119919594452  0.6537111962261571  1.0000
  C   C7        1.0  0.4314106518215262  0.3594750282034447  0.621799628932501  1.0000
  C   C8        1.0  0.343110245779303  0.3435284123137563  0.6261275167427202  1.0000
  C   C9        1.0  0.2893913888345423  0.4662417023834029  0.593279222161218  1.0000
  N   N2        1.0  0.24621422936679963  0.5648873554318894  0.5668721442114288  1.0000
  C   C10       1.0  0.3071703007890182  0.2081604897055571  0.6624164989521504  1.0000
  C   C11       1.0  0.3592836138848491  0.08916319396291406  0.6942664456223768  1.0000
  C   C12       1.0  0.4473957775338613  0.10467173073482704  0.6900561803611102  1.0000
  O   O1        1.0  0.6148516064092916  0.3843403620985726  0.6151554819418514  1.0000
  H   H1        1.0  0.7781344680296962  0.17544036480279512  0.670735312736296  1.0000
  H   H2        1.0  0.6294209141130446  0.04123589920943392  0.7066581359718451  1.0000
  H   H3        1.0  0.45863653934983095  0.4648152746958109  0.5935556461868048  1.0000
  H   H4        1.0  0.2389744643288564  0.19465453473603667  0.666079873148667  1.0000
  H   H5        1.0  0.3313316521636084  0.9845431080646853  0.7223177612984932  1.0000
  H   H6        1.0  0.48592708322047334  0.010417492318547827  0.7152918282574676  1.0000
  C   C13       1.0  0.02417196726992187  0.14373277182845176  0.5675187189990564  1.0000
  C   C14       1.0  0.9936074447170409  0.22681322404118953  0.45712994967402687  1.0000
  C   C15       1.0  0.9709186519250094  0.16162504798694652  0.3447002552899905  1.0000
  C   C16       1.0  0.9784381250528025  0.012199201570092898  0.34043353971692314  1.0000
  C   C17       1.0  0.007345828918936317  0.9274490903046612  0.4498851052500242  1.0000
  C   C18       1.0  0.029170705483663392  0.9909305112824257  0.5648943415386596  1.0000
  C   C19       1.0  0.9554831791320256  0.9453058320871435  0.224007173469569  1.0000
  C   C20       1.0  0.9362637759576626  0.8892649347549911  0.12651835149323068  1.0000
  C   C21       1.0  0.9129448292046769  0.8212572140709676  0.008232764946143115  1.0000
  H   H7        1.0  0.14591703925082156  0.22402572534922813  0.8271727437232864  1.0000
  H   H8        1.0  0.9891443017022303  0.34338051255632984  0.456707926964784  1.0000
  H   H9        1.0  0.9482657246421865  0.22811758360738188  0.260547753647278  1.0000
  H   H10       1.0  0.1084219432438695  0.6947467860059531  0.7424766915780585  1.0000
  H   H11       1.0  0.928433781325579  0.7043625501213657  0.020408855816059338  1.0000
  H   H12       1.0  0.8439847433648547  0.8346092784008431  0.9902485664225429  1.0000
  H   H13       1.0  0.9487255517468606  0.8732064792046901  0.9243063198255795  1.0000
  C   C22       1.0  0.026671306561182995  0.5673316142172775  0.18496399537900743  1.0000
  C   C23       1.0  0.05051251209946006  0.42110493014176825  0.1944426850143801  1.0000
  C   C24       1.0  0.062339083586329086  0.3485685993131497  0.08220679176848056  1.0000
  C   C25       1.0  0.05051265456911877  0.42110487224587945  0.9593602950240516  1.0000
  C   C26       1.0  0.026671346671232932  0.5673316177175962  0.9474490775638325  1.0000
  C   C27       1.0  0.014865830012267925  0.6397387962988403  0.06091071469576171  1.0000
  Br  Br1       1.0  0.09476705605595476  0.1496750363721684  0.09675383521288894  1.0000
  H   H14       1.0  0.060003133374845634  0.36289476446052404  0.28869945063185054  1.0000
  H   H15       1.0  0.06000346844995995  0.3628948090492476  0.873618548876375  1.0000
  H   H16       1.0  0.9964785344089335  0.7525144228077338  0.05266232894683931  1.0000
  Zn  Zn1       1.0  0.9338333806816987  0.568369260203258  0.565924589162504  1.0000
  Zn  Zn2       1.0  0.11950116879577716  0.5662933850719408  0.5664878844194278  1.0000
  C   C28       1.0  0.026635550981624956  0.5615850033217618  0.8033408818178944  1.0000
  C   C29       1.0  0.026701036721444842  0.5730794393768148  0.32907171970136284  1.0000
  C   C30       1.0  0.028221470616762945  0.8307921251684934  0.5602169608796452  1.0000
  C   C31       1.0  0.02511504350503156  0.3038705851369505  0.5721957150316757  1.0000
  O   O2        1.0  0.09717093527641807  0.5742143850080077  0.3776493755329469  1.0000
  O   O3        1.0  0.09708320112416974  0.5588734282744924  0.7551903837013525  1.0000
  O   O4        1.0  0.0983629014523921  0.7762615943741961  0.5588660898736912  1.0000
  O   O5        1.0  0.09589117165323513  0.3568262299357438  0.5739735717940251  1.0000
  O   O6        1.0  0.9574433144649465  0.7778364160494198  0.5584389015888473  1.0000
  O   O7        1.0  0.9561636243587036  0.5604499830528133  0.7547631208253864  1.0000
  O   O8        1.0  0.956251358270598  0.5757908895177271  0.37722055192953774  1.0000
  O   O9        1.0  0.9549715945830806  0.35840272412798857  0.5735448455581406  1.0000
