data_image0
_chemical_formula_structural       NC9NC3SH6C6NO2H5C6SCNH5Zn2C4O8
_chemical_formula_sum              "N4 C29 S2 H16 O10 Zn2"
_cell_length_a       16.77567553997237
_cell_length_b       9.273392599741053
_cell_length_c       10.302218930750286
_cell_angle_alpha    85.67519561885129
_cell_angle_beta     90.41546648822373
_cell_angle_gamma    90.29770283283837

_space_group_name_H-M_alt    "P 1"
_space_group_IT_number       1

loop_
  _space_group_symop_operation_xyz
  'x, y, z'

loop_
  _atom_site_type_symbol
  _atom_site_label
  _atom_site_symmetry_multiplicity
  _atom_site_fract_x
  _atom_site_fract_y
  _atom_site_fract_z
  _atom_site_occupancy
  N   N1        1.0  0.7412476858697958  0.5989993449954404  0.5779136931646902  1.0000
  C   C1        1.0  0.6861943016634358  0.6537683690148293  0.6196141844093096  1.0000
  C   C2        1.0  0.6178722725387085  0.7217331067605087  0.6713613046687243  1.0000
  C   C3        1.0  0.6194679072665022  0.8195377712753615  0.7665908591955546  1.0000
  C   C4        1.0  0.543561310931676  0.8678069155178988  0.7981926965613568  1.0000
  C   C5        1.0  0.48188585683949  0.8078016850981903  0.7274734919980416  1.0000
  C   C6        1.0  0.3952319466423548  0.8367426495973578  0.7383803903132786  1.0000
  C   C7        1.0  0.3389082359149425  0.7483743418793289  0.6799289151391558  1.0000
  C   C8        1.0  0.2571165683055436  0.7750830149780117  0.689774945174916  1.0000
  C   C9        1.0  0.20014203802487418  0.6837516653629043  0.629922488520396  1.0000
  N   N2        1.0  0.1543514661015115  0.6103343483254813  0.5818099557620053  1.0000
  C   C10       1.0  0.23081675848709443  0.8905081613490903  0.7579120671874774  1.0000
  C   C11       1.0  0.2860477102979631  0.9790528455911389  0.8159023998950616  1.0000
  C   C12       1.0  0.3676794788067466  0.9527474939205225  0.8063517110460863  1.0000
  S   S1        1.0  0.5230973696863702  0.6944539809286651  0.6261578775699703  1.0000
  H   H1        1.0  0.6736782994090684  0.8549118481218787  0.8124203674985724  1.0000
  H   H2        1.0  0.5348807256636279  0.9431963843564133  0.8718117060826376  1.0000
  H   H3        1.0  0.3582105866189231  0.6581064201326894  0.6273102968531459  1.0000
  H   H4        1.0  0.1677107250756671  0.9121143895194082  0.766041772582802  1.0000
  H   H5        1.0  0.2655685246750826  0.06864175922764247  0.8682022447753176  1.0000
  H   H6        1.0  0.4087188674897753  0.024519849915014533  0.8512451940570022  1.0000
  C   C13       1.0  0.9502331532404787  0.18120511095014  0.5790683517282484  1.0000
  C   C14       1.0  0.9400590104931992  0.2642814396138204  0.4603709980602886  1.0000
  C   C15       1.0  0.922851208833209  0.19872229068563008  0.3459108277250993  1.0000
  C   C16       1.0  0.9152480126094218  0.04809754424699775  0.34695444722019375  1.0000
  C   C17       1.0  0.9266653661164692  0.9638870287495752  0.4647581544633905  1.0000
  C   C18       1.0  0.9453736938576099  0.02811768627559586  0.5806665801541515  1.0000
  N   N3        1.0  0.8967991019399474  0.9810872078877217  0.22867552640378586  1.0000
  O   O1        1.0  0.8863173733575529  0.06390656225440527  0.11331089986872267  1.0000
  O   O2        1.0  0.8897797256867293  0.846961338698113  0.2288165960247764  1.0000
  H   H7        1.0  0.9340626373445913  0.2572174655426833  0.8975727810270226  1.0000
  H   H8        1.0  0.943542920659077  0.38121970086950124  0.45656790934670566  1.0000
  H   H9        1.0  0.9146889019747299  0.2664223502477667  0.2565997742641084  1.0000
  H   H10       1.0  0.922815395189845  0.8471791712718392  0.46564603591089826  1.0000
  H   H11       1.0  0.9372020604826752  0.729792163786291  0.7959508442974219  1.0000
  C   C19       1.0  0.9477287140691678  0.6047269182253754  0.19859173864367846  1.0000
  C   C20       1.0  0.023189304657185834  0.5395968257613157  0.202951721192876  1.0000
  C   C21       1.0  0.060705574124441546  0.5067338089791165  0.08814280918583672  1.0000
  C   C22       1.0  0.02338468934893156  0.539423563129082  0.9677989704708923  1.0000
  C   C23       1.0  0.9478781167895122  0.6045958985675586  0.9611432163501923  1.0000
  C   C24       1.0  0.9104515171045285  0.6368366194660147  0.07711123469998271  1.0000
  S   S2        1.0  0.15716519450945565  0.42415921999185713  0.09514921162247572  1.0000
  C   C25       1.0  0.1164793946397058  0.24779970128602755  0.10668814028014184  1.0000
  N   N4        1.0  0.08978226736372696  0.13218715100091583  0.11425266122333233  1.0000
  H   H12       1.0  0.9190209420237503  0.629581565298734  0.524262781342139  1.0000
  H   H13       1.0  0.05309002804947262  0.5138767307116068  0.2952540651876676  1.0000
  H   H14       1.0  0.05341933519369024  0.5135846394035691  0.8798351192855437  1.0000
  H   H15       1.0  0.8522515889559736  0.6870476550141932  0.07290185524696646  1.0000
  H   H16       1.0  0.8055934625958052  0.727578970124013  0.7413710560586383  1.0000
  Zn  Zn1       1.0  0.8604605397474938  0.6022665307677739  0.5790455688609885  1.0000
  Zn  Zn2       1.0  0.03513867684630223  0.6070553970364436  0.5806887203749904  1.0000
  C   C26       1.0  0.9478810707838372  0.5988759120564532  0.8169938042610846  1.0000
  C   C27       1.0  0.9477200428748458  0.6104478874995162  0.3427406337870081  1.0000
  C   C28       1.0  0.9462871166462395  0.8680339851812932  0.5751905572938709  1.0000
  C   C29       1.0  0.9493139473615063  0.341288080210411  0.5845439461457107  1.0000
  O   O3        1.0  0.014006611526402368  0.6141789557534019  0.3917418753774731  1.0000
  O   O4        1.0  0.014171172582046363  0.5987783947002036  0.7692393008421523  1.0000
  O   O5        1.0  0.012883141108773305  0.816126917986254  0.5739814625415283  1.0000
  O   O6        1.0  0.015294583315595084  0.3968304411655753  0.5869996157859905  1.0000
  O   O7        1.0  0.8803045736691151  0.8124914850060083  0.5727346728824347  1.0000
  O   O8        1.0  0.8815925951842402  0.5951446942515896  0.7679924452240161  1.0000
  O   O9        1.0  0.8814280341640729  0.6105452053234088  0.39049345864578977  1.0000
  O   O10       1.0  0.8827160060282606  0.39319668040472516  0.5857512963788609  1.0000
