data_image0
_chemical_formula_structural       NC9NC3OH6C7OC6H9C7OC6OCH11Zn2C4O8
_chemical_formula_sum              "N2 C43 O12 H26 Zn2"
_cell_length_a       15.78231758774541
_cell_length_b       10.299379429549807
_cell_length_c       10.299362532796529
_cell_angle_alpha    85.55652278512687
_cell_angle_beta     90.09919445181322
_cell_angle_gamma    89.62936124648849

_space_group_name_H-M_alt    "P 1"
_space_group_IT_number       1

loop_
  _space_group_symop_operation_xyz
  'x, y, z'

loop_
  _atom_site_type_symbol
  _atom_site_label
  _atom_site_symmetry_multiplicity
  _atom_site_fract_x
  _atom_site_fract_y
  _atom_site_fract_z
  _atom_site_occupancy
  N   N1        1.0  0.7975759670823223  0.4129072880514826  0.569375358127143  1.0000
  C   C1        1.0  0.7490510662872824  0.3308463840633555  0.593486778956873  1.0000
  C   C2        1.0  0.6888055972565521  0.2289888556185946  0.6234152633790557  1.0000
  C   C3        1.0  0.7084792995752093  0.10103936085453791  0.6609308535354821  1.0000
  C   C4        1.0  0.6317541194650148  0.03903005042517594  0.6791869277509923  1.0000
  C   C5        1.0  0.5699652476115296  0.13372733321586464  0.6514623773951635  1.0000
  C   C6        1.0  0.47687580196340484  0.11621928179018881  0.6566799886491788  1.0000
  C   C7        1.0  0.4231213538460316  0.22357046946203998  0.6250857050240324  1.0000
  C   C8        1.0  0.3349161286526676  0.2092142892893034  0.6293711818147383  1.0000
  C   C9        1.0  0.2804649097612985  0.31968891286246737  0.5968493997429822  1.0000
  N   N2        1.0  0.23669902555287292  0.408496256645811  0.5707047953049247  1.0000
  C   C10       1.0  0.2997840786201923  0.0873471449005805  0.6652999977671377  1.0000
  C   C11       1.0  0.3526075757041964  0.9802179041613666  0.6968333181661053  1.0000
  C   C12       1.0  0.44062717305450366  0.9941796966368549  0.6926642984104616  1.0000
  O   O1        1.0  0.6064139123519311  0.24595589209354746  0.618507722984637  1.0000
  H   H1        1.0  0.7709434457221058  0.057890185111452164  0.673531607039489  1.0000
  H   H2        1.0  0.6230308336790191  0.9370704445076321  0.7090973418486304  1.0000
  H   H3        1.0  0.44971855502729896  0.31840471513111207  0.5971219939478676  1.0000
  H   H4        1.0  0.2316688550249274  0.07518820566687312  0.668927451341252  1.0000
  H   H5        1.0  0.32528000237726706  0.8860319947455749  0.7246062783935419  1.0000
  H   H6        1.0  0.4797209959031187  0.9093257961644847  0.7176491586949214  1.0000
  C   C13       1.0  0.017150811702755012  0.02930979060337061  0.5701941733973361  1.0000
  C   C14       1.0  0.06853323499729241  0.018940653224453593  0.6820940873436756  1.0000
  C   C15       1.0  0.09365495709453886  0.8964797488550612  0.73938192589457  1.0000
  C   C16       1.0  0.06843005224350679  0.7837195291745159  0.6818174956965428  1.0000
  C   C17       1.0  0.017132273210108004  0.7920837097678795  0.5698972130891367  1.0000
  C   C18       1.0  0.991606208085567  0.9153519913410191  0.5149313179443764  1.0000
  C   C19       1.0  0.1486467007305973  0.8854398966041562  0.8567445681095984  1.0000
  O   O2        1.0  0.20240339590429468  0.7941174121008013  0.8692633706665425  1.0000
  C   C20       1.0  0.14265019567317505  0.9778987136881638  0.9599100021558222  1.0000
  C   C21       1.0  0.2151391550726106  0.006658123667553143  0.031691294585438734  1.0000
  C   C22       1.0  0.20990813076331127  0.09250165156971325  0.1301666076648097  1.0000
  C   C23       1.0  0.1322962430901653  0.1495840486406923  0.15868954300007299  1.0000
  C   C24       1.0  0.05967776892451049  0.12051778679020789  0.0891519318180578  1.0000
  C   C25       1.0  0.0645685167611405  0.03475730189381654  0.99058792263886  1.0000
  H   H7        1.0  0.9212580958299809  0.25627621448942883  0.35787487370526105  1.0000
  H   H8        1.0  0.08985427573590041  0.10632778925877173  0.7239951556099677  1.0000
  H   H9        1.0  0.08827293569100009  0.6892326413588955  0.7253142704890756  1.0000
  H   H10       1.0  0.9519946307327245  0.9225417177906922  0.42866431358277907  1.0000
  H   H11       1.0  0.2759207082584738  0.963595713697241  0.01082821779844978  1.0000
  H   H12       1.0  0.2660844094771022  0.11472476827266487  0.18443211517195468  1.0000
  H   H13       1.0  0.12836269336957273  0.21591830993446726  0.2350177535813639  1.0000
  H   H14       1.0  0.9994417846648727  0.16401409871631945  0.1120164627295499  1.0000
  H   H15       1.0  0.00722262063971946  0.011862049451187403  0.9394785833340217  1.0000
  C   C26       1.0  0.017075416042880088  0.410576868985407  0.18867866489721563  1.0000
  C   C27       1.0  0.9366455128419501  0.35270080677508064  0.19174566599831033  1.0000
  C   C28       1.0  0.8957136305071451  0.32483682314775436  0.07611944109247215  1.0000
  C   C29       1.0  0.9368841219220361  0.35286197714395895  0.9564920248491134  1.0000
  C   C30       1.0  0.01720767589007766  0.41081660859621666  0.9514127465580833  1.0000
  C   C31       1.0  0.05677025860252116  0.4395959971552392  0.06804332124358381  1.0000
  C   C32       1.0  0.8112125901295077  0.2623843368256791  0.08169106947898297  1.0000
  O   O3        1.0  0.7939031596235384  0.1833470714221524  0.17756606025937027  1.0000
  C   C33       1.0  0.7463515813695745  0.2895886136942421  0.9785695615019697  1.0000
  C   C34       1.0  0.7398327139960702  0.4130337272387835  0.9106484047883772  1.0000
  C   C35       1.0  0.6778126547914223  0.4378377150506926  0.8147556434977088  1.0000
  C   C36       1.0  0.6208182188356643  0.34074032683271316  0.7855723024977714  1.0000
  C   C37       1.0  0.6264459988113957  0.21749772991637872  0.8544089021797308  1.0000
  C   C38       1.0  0.6884584679528285  0.19256661193474361  0.950374095013748  1.0000
  O   O4        1.0  0.5598216057312656  0.3705143005799101  0.6883917394889645  1.0000
  C   C39       1.0  0.49804468483919373  0.28136845480826467  0.6488670346241019  1.0000
  H   H16       1.0  0.16899124429276402  0.5192960699087615  0.39019998028451247  1.0000
  H   H17       1.0  0.9052738396114081  0.3302736951757963  0.2841936226731039  1.0000
  H   H18       1.0  0.9065951557220204  0.3280847214151376  0.86735601629097  1.0000
  H   H19       1.0  0.11873424391358739  0.4842995915040956  0.06485781370221466  1.0000
  H   H20       1.0  0.04816364950448035  0.43256494175467824  0.6220286808437128  1.0000
  H   H21       1.0  0.7820643357860543  0.4908647162967148  0.9325700056630469  1.0000
  H   H22       1.0  0.6737731919046634  0.5333431511080764  0.7631426210088601  1.0000
  H   H23       1.0  0.5832410650166161  0.14036234558209126  0.8345808634512997  1.0000
  H   H24       1.0  0.6916747014326959  0.09688756649601249  0.0018715038578440706  1.0000
  H   H25       1.0  0.45667030232925815  0.2495692073885627  0.732303987847239  1.0000
  H   H26       1.0  0.5296325075590407  0.19572630901026544  0.6103400481272989  1.0000
  Zn  Zn1       1.0  0.9242973939152686  0.4116308928404704  0.5697664997593366  1.0000
  Zn  Zn2       1.0  0.10997757232570526  0.409762055083321  0.570324274066135  1.0000
  C   C40       1.0  0.01718089992204908  0.40559733166075934  0.8072416681080017  1.0000
  C   C41       1.0  0.017096093922960062  0.4157972346139923  0.33284923863620874  1.0000
  C   C42       1.0  0.01713051413649413  0.6479016119857515  0.5647781926244673  1.0000
  C   C43       1.0  0.017146416398788666  0.17349139455165813  0.5753127837751721  1.0000
  O   O5        1.0  0.0875676937725382  0.4168343567346795  0.38144587484586867  1.0000
  O   O6        1.0  0.08763625909812074  0.4031408250251762  0.759067996228427  1.0000
  O   O7        1.0  0.0875946222758841  0.5988046057284842  0.5632770209269382  1.0000
  O   O8        1.0  0.08760926721759943  0.22117058592925432  0.5772367525792224  1.0000
  O   O9        1.0  0.946665635659841  0.6002223626336917  0.5628540210490764  1.0000
  O   O10       1.0  0.9467072724282707  0.4045601423068806  0.7586449264979633  1.0000
  O   O11       1.0  0.9466387068894196  0.41825362826631873  0.38102124374021384  1.0000
  O   O12       1.0  0.9466802803481233  0.22258984820216554  0.5768122188445299  1.0000
