data_image0
_chemical_formula_structural       NC9NC3OH6C8H10C6SCH6Zn2C4O8
_chemical_formula_sum              "N2 C31 O9 H22 S1 Zn2"
_cell_length_a       15.78231758774541
_cell_length_b       9.275653711864159
_cell_length_c       10.302812801239593
_cell_angle_alpha    85.74330636578323
_cell_angle_beta     90.08384720459999
_cell_angle_gamma    89.08352321082864

_space_group_name_H-M_alt    "P 1"
_space_group_IT_number       1

loop_
  _space_group_symop_operation_xyz
  'x, y, z'

loop_
  _atom_site_type_symbol
  _atom_site_label
  _atom_site_symmetry_multiplicity
  _atom_site_fract_x
  _atom_site_fract_y
  _atom_site_fract_z
  _atom_site_occupancy
  N   N1        1.0  0.7890450749464714  0.569087689603248  0.5748543309704777  1.0000
  C   C1        1.0  0.7410257586222481  0.4779764938645374  0.5986659392792109  1.0000
  C   C2        1.0  0.6814078427524453  0.36488535337491546  0.6282222833778837  1.0000
  C   C3        1.0  0.7018698667434801  0.2228246565777838  0.6652704300080055  1.0000
  C   C4        1.0  0.625526725244328  0.15397648181182855  0.6832999396132793  1.0000
  C   C5        1.0  0.5631543979705687  0.2591176561431323  0.655921338130804  1.0000
  C   C6        1.0  0.47017280839539866  0.23967865994504242  0.6610749601942156  1.0000
  C   C7        1.0  0.41575696905287945  0.35886935960995786  0.6298729042892515  1.0000
  C   C8        1.0  0.3276401820115205  0.3429298487661443  0.6341059092514154  1.0000
  C   C9        1.0  0.2725083298045664  0.46558846366781637  0.6019877695327449  1.0000
  N   N2        1.0  0.2281953044473757  0.5641901649353684  0.5761676418699355  1.0000
  C   C10       1.0  0.293258945391817  0.20762223962188164  0.6695894412474142  1.0000
  C   C11       1.0  0.3467424655374564  0.08867796337819334  0.7007313434913107  1.0000
  C   C12       1.0  0.4346760544942655  0.1041795902912992  0.6966133544743596  1.0000
  O   O1        1.0  0.5989116091007589  0.38372361470199656  0.6233767084052613  1.0000
  H   H1        1.0  0.7645998720588822  0.17491669326150738  0.677713560595441  1.0000
  H   H2        1.0  0.6174316297703785  0.04077202275394098  0.7128378554409449  1.0000
  H   H3        1.0  0.4417699050878277  0.464162671533151  0.6022557045544967  1.0000
  H   H4        1.0  0.2252186246836467  0.19412230225709481  0.6731724545694653  1.0000
  H   H5        1.0  0.3199951629436132  0.9841044911800446  0.728160161176997  1.0000
  H   H6        1.0  0.4742926606577783  0.00996734705160974  0.7212881814500274  1.0000
  C   C13       1.0  0.011002486889952754  0.14322323300346884  0.5743065725833165  1.0000
  C   C14       1.0  0.9911156062940258  0.22685098036236176  0.4584595859615039  1.0000
  C   C15       1.0  0.9635884497109087  0.16193097309141602  0.347614247192201  1.0000
  C   C16       1.0  0.9572086423212104  0.01140840311989111  0.3517434765156593  1.0000
  C   C17       1.0  0.9780099629695412  0.926582992513698  0.4650912025469023  1.0000
  C   C18       1.0  0.00624603129704248  0.9900434215527402  0.5767265769832104  1.0000
  C   C19       1.0  0.9437413446444716  0.2529404579881356  0.22385372387885805  1.0000
  C   C20       1.0  0.023006830055070517  0.2738954241692746  0.14054468335336168  1.0000
  H   H7        1.0  0.0879226119532865  0.4069092724486069  0.7544839720718746  1.0000
  H   H8        1.0  0.9951729018346581  0.34362441924856557  0.45497401753170097  1.0000
  H   H9        1.0  0.936917449867142  0.959393863926321  0.2665248775384128  1.0000
  H   H10       1.0  0.9740914175225552  0.8101555749966629  0.46428700154809105  1.0000
  H   H11       1.0  0.014219701747083757  0.6908472693408946  0.7908413379160777  1.0000
  H   H12       1.0  0.8943417040901338  0.2006109888766019  0.16725159959338964  1.0000
  H   H13       1.0  0.918024957567313  0.3603906471808347  0.24678817446532797  1.0000
  H   H14       1.0  0.07238799809858842  0.3295411692256951  0.1942920883801531  1.0000
  H   H15       1.0  0.04844139793278754  0.16770527501777877  0.1139061602621021  1.0000
  H   H16       1.0  0.00702558105115414  0.34113269974272886  0.04988393266736323  1.0000
  C   C21       1.0  0.008624288606072556  0.5666333528699619  0.1942681275170257  1.0000
  C   C22       1.0  0.9792393880382491  0.7107411840097682  0.18339630449524247  1.0000
  C   C23       1.0  0.9644011238360296  0.7822344610774619  0.061009982301301495  1.0000
  C   C24       1.0  0.9792393124956715  0.71074103350414  0.9482451341449937  1.0000
  C   C25       1.0  0.008624233697041234  0.5666333437660735  0.9567650309544251  1.0000
  C   C26       1.0  0.02314705491602308  0.4952713463023441  0.08031792892208589  1.0000
  S   S1        1.0  0.9270310004037703  0.9664583421150055  0.04861530086289645  1.0000
  C   C27       1.0  0.8158518707830248  0.9173245470229596  0.051650140516709346  1.0000
  H   H17       1.0  0.9675665461453726  0.7679812377174291  0.26964462482303464  1.0000
  H   H18       1.0  0.9675663776599162  0.7679810319070131  0.8542943107400206  1.0000
  H   H19       1.0  0.045797618881250085  0.3841052013824633  0.08779735573161362  1.0000
  H   H20       1.0  0.8011861664397008  0.8533485745691847  0.9677755743625442  1.0000
  H   H21       1.0  0.8011865211796253  0.8533500277043446  0.14401027164568392  1.0000
  H   H22       1.0  0.7760745771331969  0.017283921036356894  0.044880764717292854  1.0000
  Zn  Zn1       1.0  0.9157743630006456  0.5676705183373838  0.5752408042201214  1.0000
  Zn  Zn2       1.0  0.10146605399922111  0.565595568116293  0.5757917479556125  1.0000
  C   C28       1.0  0.008654619436560209  0.5608892729528603  0.8126203815324444  1.0000
  C   C29       1.0  0.008587815092193848  0.5723786101233195  0.3384123092848823  1.0000
  C   C30       1.0  0.007140748135484151  0.8299764571558719  0.5710956153387974  1.0000
  C   C31       1.0  0.010101632759873747  0.30328969429906527  0.5799371395566679  1.0000
  O   O2        1.0  0.07904463857345534  0.5735130477443819  0.3869974757592731  1.0000
  O   O3        1.0  0.07913349891963484  0.5581789083860742  0.7644529917688407  1.0000
  O   O4        1.0  0.07791007874219286  0.7754702233168596  0.569420035705628  1.0000
  O   O5        1.0  0.08026799532897333  0.3562217438361274  0.5820303343200504  1.0000
  O   O6        1.0  0.9369723583034237  0.7770443433271979  0.5690022176608489  1.0000
  O   O7        1.0  0.9381957687467923  0.5597547607273035  0.7640351094510893  1.0000
  O   O8        1.0  0.938106908739295  0.5750888498394818  0.3865780323905774  1.0000
  O   O9        1.0  0.9393302655492675  0.3577975356183454  0.581610988258956  1.0000
