data_image0
_chemical_formula_structural       NC9NC3SH6C7OCH9C7F3H3Zn2C4O8
_chemical_formula_sum              "N2 C31 S1 H18 O9 F3 Zn2"
_cell_length_a       16.77567553997237
_cell_length_b       10.30083208314754
_cell_length_c       9.272721663655245
_cell_angle_alpha    85.8570081302309
_cell_angle_beta     90.90861439337802
_cell_angle_gamma    90.88775763152196

_space_group_name_H-M_alt    "P 1"
_space_group_IT_number       1

loop_
  _space_group_symop_operation_xyz
  'x, y, z'

loop_
  _atom_site_type_symbol
  _atom_site_label
  _atom_site_symmetry_multiplicity
  _atom_site_fract_x
  _atom_site_fract_y
  _atom_site_fract_z
  _atom_site_occupancy
  N   N1        1.0  0.7427293578048048  0.4316412164924045  0.41665851167570245  1.0000
  C   C1        1.0  0.6882092794811578  0.48120368374176176  0.46283960782932265  1.0000
  C   C2        1.0  0.6205490453896928  0.5427074262537286  0.5201468147060642  1.0000
  C   C3        1.0  0.6232078564350613  0.6313351469908854  0.6256750394822805  1.0000
  C   C4        1.0  0.5477437880603397  0.6749856886948817  0.660655911457191  1.0000
  C   C5        1.0  0.485350435313315  0.6205392089889991  0.5822579293178332  1.0000
  C   C6        1.0  0.3989189367839958  0.6466642122480022  0.5943010941597848  1.0000
  C   C7        1.0  0.3417818871238035  0.5667478999356846  0.529597456918074  1.0000
  C   C8        1.0  0.2601943039457118  0.5908565370700429  0.5404678123797027  1.0000
  C   C9        1.0  0.2023821462454467  0.5082638339139712  0.4742154011460904  1.0000
  N   N2        1.0  0.15591824332754517  0.4418711378989322  0.42095825140058335  1.0000
  C   C10       1.0  0.2349130367808324  0.6951940796427376  0.6158628261328674  1.0000
  C   C11       1.0  0.2909558668877589  0.7752665385283015  0.6800538649106731  1.0000
  C   C12       1.0  0.3723874155751156  0.7515228132211833  0.6695105466278646  1.0000
  S   S1        1.0  0.5253781043297276  0.51787946093324  0.47000812858407237  1.0000
  H   H1        1.0  0.6778635552606186  0.6634563219069702  0.6764893385840409  1.0000
  H   H2        1.0  0.5398838616157567  0.7433026633659303  0.7422370402227914  1.0000
  H   H3        1.0  0.3602912538199399  0.4851548925488008  0.4713767203687038  1.0000
  H   H4        1.0  0.1719729782620795  0.7146979423432709  0.6248393897414248  1.0000
  H   H5        1.0  0.2712641114830264  0.8562462397385071  0.7379222117031627  1.0000
  H   H6        1.0  0.4140736211205264  0.8164154873055709  0.7191964684002212  1.0000
  C   C13       1.0  0.9493506267082459  0.055420866375162525  0.41895998787094224  1.0000
  C   C14       1.0  0.9264279256567652  0.06353802161472699  0.27230436482128395  1.0000
  C   C15       1.0  0.9139572943502362  0.9504572682542863  0.19888316339174983  1.0000
  C   C16       1.0  0.9263684741719099  0.8282757146618042  0.2719227594785456  1.0000
  C   C17       1.0  0.9493046921944691  0.8180817701185278  0.4186693911328336  1.0000
  C   C18       1.0  0.9604746429048144  0.9321800583222354  0.49140766198274677  1.0000
  C   C19       1.0  0.8917111230164704  0.9603907474137755  0.04092734282809009  1.0000
  O   O1        1.0  0.9621134808277783  0.9676382106545219  0.959228154355855  1.0000
  C   C20       1.0  0.9420310850178862  0.9770291557733451  0.8106672498905115  1.0000
  H   H7        1.0  0.9181951314380543  0.15773181729582797  0.21457365929330413  1.0000
  H   H8        1.0  0.9180941419639987  0.7413197634209338  0.21393007436944148  1.0000
  H   H9        1.0  0.9781603746264863  0.9251570474768921  0.6045106636841934  1.0000
  H   H10       1.0  0.9934443874875587  0.5916515067642312  0.695065144163334  1.0000
  H   H11       1.0  0.8548839155934294  0.04862989561840858  0.01643822496176983  1.0000
  H   H12       1.0  0.8549142774574475  0.8735395315674783  0.016107903428896234  1.0000
  H   H13       1.0  0.9978816128371032  0.9826340240428056  0.7479129322385918  1.0000
  H   H14       1.0  0.9079217776334867  0.06694276771700049  0.7802422032585534  1.0000
  H   H15       1.0  0.9079338524704026  0.8894592691732093  0.7798850055215047  1.0000
  C   C21       1.0  0.9472182805980832  0.4345928883980575  0.9953503012714046  1.0000
  C   C22       1.0  0.9811571916722442  0.3292172486117164  0.07846622691011086  1.0000
  C   C23       1.0  0.02208359609955112  0.2317388088695427  0.013024584787318268  1.0000
  C   C24       1.0  0.02662842635031981  0.23783113111253654  0.8619197859833987  1.0000
  C   C25       1.0  0.9922171647480248  0.3404914214500605  0.7778316715090723  1.0000
  C   C26       1.0  0.9514370308971201  0.43890977010593346  0.842279028391029  1.0000
  C   C27       1.0  0.05621165335221834  0.11777973958597211  0.10377076281841505  1.0000
  F   F1        1.0  0.08305943242109914  0.15618592142381504  0.236268740928818  1.0000
  F   F2        1.0  0.11976745230580632  0.06564057103744747  0.03533266336358465  1.0000
  F   F3        1.0  0.9976836714217476  0.022859113195214734  0.12623296970361686  1.0000
  H   H16       1.0  0.8966617769892112  0.742568491426542  0.07092594499247373  1.0000
  H   H17       1.0  0.05610171493656835  0.16227807589427123  0.8083476551748414  1.0000
  H   H18       1.0  0.8083482310911344  0.6543918150120638  0.7194158273817934  1.0000
  Zn  Zn1       1.0  0.8619667894030051  0.4345899262794853  0.4179076612617116  1.0000
  Zn  Zn2       1.0  0.036680866391819666  0.4389118950512253  0.41972094818041683  1.0000
  C   C28       1.0  0.9506381135668975  0.4329205019595548  0.6821933343595898  1.0000
  C   C29       1.0  0.9480114507064967  0.44058300576411047  0.15543543579539199  1.0000
  C   C30       1.0  0.9492806258117434  0.6738932349110369  0.4129778485978767  1.0000
  C   C31       1.0  0.9493688793209304  0.199608711564073  0.4246509984140656  1.0000
  O   O2        1.0  0.01458072786917608  0.44422784325314196  0.20984960443186162  1.0000
  O   O3        1.0  0.016672776221451135  0.4325549570123539  0.6291549938000005  1.0000
  O   O4        1.0  0.01557570136313946  0.6271434719193594  0.411761574512165  1.0000
  O   O5        1.0  0.015677742570264774  0.24963933560963783  0.4272429149745318  1.0000
  O   O6        1.0  0.8829698536031821  0.6238624842475726  0.41038569384122503  1.0000
  O   O7        1.0  0.8840669279808359  0.4292755291156213  0.6277790356457283  1.0000
  O   O8        1.0  0.881974871048148  0.44094836126868  0.2084719125474586  1.0000
  O   O9        1.0  0.8830718862850815  0.24635984488817408  0.42586533120892267  1.0000
