data_image0
_chemical_formula_structural       NC9NC3OH6C12H10C7F3H5Zn2C4O8
_chemical_formula_sum              "N2 C35 O9 H21 F3 Zn2"
_cell_length_a       15.78231758774541
_cell_length_b       10.299137764757564
_cell_length_c       9.272721663655243
_cell_angle_alpha    85.85599579155343
_cell_angle_beta     90.60221336655935
_cell_angle_gamma    89.65025930418041

_space_group_name_H-M_alt    "P 1"
_space_group_IT_number       1

loop_
  _space_group_symop_operation_xyz
  'x, y, z'

loop_
  _atom_site_type_symbol
  _atom_site_label
  _atom_site_symmetry_multiplicity
  _atom_site_fract_x
  _atom_site_fract_y
  _atom_site_fract_z
  _atom_site_occupancy
  N   N1        1.0  0.7897489356111327  0.4055655179840791  0.41156204383641026  1.0000
  C   C1        1.0  0.7413420710957128  0.32362725831363504  0.43833104946119156  1.0000
  C   C2        1.0  0.6812431157786265  0.2219219630830146  0.47155828125996385  1.0000
  C   C3        1.0  0.701100409787279  0.09416328877986158  0.5132088671026505  1.0000
  C   C4        1.0  0.6244646308165871  0.03224684138041645  0.5334771485724279  1.0000
  C   C5        1.0  0.5625401156628522  0.12680310779873705  0.5026967833050788  1.0000
  C   C6        1.0  0.4694762720439519  0.10932160077362063  0.50848949413882  1.0000
  C   C7        1.0  0.415567113503907  0.21651207873978473  0.47341285056063337  1.0000
  C   C8        1.0  0.32738292222262766  0.2021777012192527  0.4781706853789798  1.0000
  C   C9        1.0  0.2727724444710401  0.31248689668244584  0.4420643123180792  1.0000
  N   N2        1.0  0.22887852933894165  0.4011612509772078  0.4130380171238588  1.0000
  C   C10       1.0  0.2924268583844817  0.08049331884723009  0.5180596265289203  1.0000
  C   C11       1.0  0.3454047708951016  0.9735244779914889  0.55306858799104  1.0000
  C   C12       1.0  0.43340390491066977  0.9874650602178929  0.5484400462909769  1.0000
  O   O1        1.0  0.598827469318867  0.23886404199627995  0.46610983671736084  1.0000
  H   H1        1.0  0.763626179468931  0.05107820264791351  0.5271984783947701  1.0000
  H   H2        1.0  0.6158877313062405  0.9304393736939087  0.5666843122382519  1.0000
  H   H3        1.0  0.44202733927769894  0.3112040788356172  0.4423669388802902  1.0000
  H   H4        1.0  0.2243294373073707  0.06835283439489226  0.5220869085857769  1.0000
  H   H5        1.0  0.3182132389578867  0.8794798438660428  0.5839027240421268  1.0000
  H   H6        1.0  0.47262008272896844  0.9027382502390382  0.576178769413598  1.0000
  C   C13       1.0  0.009237053262968644  0.021965044992128254  0.4124569572037493  1.0000
  C   C14       1.0  0.0083954531117929  0.031070834657967113  0.26062190315878353  1.0000
  C   C15       1.0  0.008051660869923486  0.9185544948872655  0.18348026345618562  1.0000
  C   C16       1.0  0.008560793282101685  0.7958120128068065  0.26022593827428775  1.0000
  C   C17       1.0  0.0093985528116125  0.7847517265038518  0.41215560294149456  1.0000
  C   C18       1.0  0.009732945748915929  0.8983411379939148  0.487335774466268  1.0000
  C   C19       1.0  0.0071603275741056755  0.9292324443315646  0.022853774005320286  1.0000
  C   C20       1.0  0.057853003791829644  0.8460232685044448  0.9454528362003636  1.0000
  C   C21       1.0  0.05690868893136234  0.8563257895531391  0.7942559775525466  1.0000
  C   C22       1.0  0.005475211510975078  0.949454062013272  0.7187515199419434  1.0000
  C   C23       1.0  0.9548787826861267  0.03253866985006826  0.7942906477114464  1.0000
  C   C24       1.0  0.9556100483795126  0.022733187259922568  0.9454877646456854  1.0000
  H   H7        1.0  0.009517545279763333  0.3459387268853071  0.47086261412313846  1.0000
  H   H8        1.0  0.009177899577871738  0.1258978455412818  0.2019993679104166  1.0000
  H   H9        1.0  0.007131704249254904  0.7087642824095303  0.2013223042441805  1.0000
  H   H10       1.0  0.010379771579754222  0.890602127237509  0.604449627976511  1.0000
  H   H11       1.0  0.01044099152300726  0.5565898539393116  0.6989130646946141  1.0000
  H   H12       1.0  0.0989910788593959  0.7742261566593007  0.0017963835357335204  1.0000
  H   H13       1.0  0.09626870673598881  0.792229592432785  0.7355938796128885  1.0000
  H   H14       1.0  0.004826774532929565  0.9572366398957354  0.6017150784305736  1.0000
  H   H15       1.0  0.914868888172208  0.10443480397546323  0.7356540478875302  1.0000
  H   H16       1.0  0.9150967983620817  0.08703700377787271  0.0018505096967096318  1.0000
  C   C25       1.0  0.0070754304260611765  0.4012743218811114  0.9888563432982788  1.0000
  C   C26       1.0  0.043115786889258  0.29467935406302403  0.07174186374405478  1.0000
  C   C27       1.0  0.08658445358971484  0.1957353628312848  0.006021950383370717  1.0000
  C   C28       1.0  0.09141626514657569  0.20166769112754765  0.8548860045137148  1.0000
  C   C29       1.0  0.054873157498552566  0.3055635989448646  0.7710315625895564  1.0000
  C   C30       1.0  0.011560202725470195  0.4054424709385729  0.8357561774854476  1.0000
  C   C31       1.0  0.12282346242129316  0.08054886838043848  0.09653655511688375  1.0000
  F   F1        1.0  0.1513671992902979  0.11801030776905083  0.22885050240387583  1.0000
  F   F2        1.0  0.1903545853073465  0.026149956914075068  0.02766488086600982  1.0000
  F   F3        1.0  0.060595215783680406  0.9876859518769907  0.11940011036391329  1.0000
  H   H17       1.0  0.9534301947392391  0.7110908568105411  0.06477301592827223  1.0000
  H   H18       1.0  0.038883888979108105  0.29010759241852613  0.18857509976560238  1.0000
  H   H19       1.0  0.1227188959031204  0.12505834255663006  0.801113553380007  1.0000
  H   H20       1.0  0.058504176592454105  0.30594257221164245  0.654388984920784  1.0000
  H   H21       1.0  0.8595484604159196  0.6260280438773094  0.7138676990443393  1.0000
  Zn  Zn1       1.0  0.9164722903201569  0.404291113368415  0.41199629952575423  1.0000
  Zn  Zn2       1.0  0.10215520631478142  0.40242511331975317  0.41261555336774447  1.0000
  C   C32       1.0  0.010709481569664224  0.3994805268519021  0.6756760300052631  1.0000
  C   C33       1.0  0.007920043813397058  0.4072373189021541  0.14893597053436736  1.0000
  C   C34       1.0  0.00933324139575053  0.6405405710891976  0.4064663260882444  1.0000
  C   C35       1.0  0.009296220703427728  0.16617571525702174  0.41814575173514945  1.0000
  O   O2        1.0  0.0786692015074213  0.40852475170287117  0.20289516162468546  1.0000
  O   O3        1.0  0.08088935829974697  0.39677586134952114  0.6221864235426098  1.0000
  O   O4        1.0  0.07977708498303276  0.5914349126169347  0.4047976792247343  1.0000
  O   O5        1.0  0.07978141089255691  0.21386570983101258  0.4202837976083962  1.0000
  O   O6        1.0  0.938846022377875  0.5928505174953063  0.4043280550661965  1.0000
  O   O7        1.0  0.9399582956139662  0.3981930262738802  0.6217167218814021  1.0000
  O   O8        1.0  0.9377381296876758  0.4099418628346294  0.20242372629276795  1.0000
  O   O9        1.0  0.9388503396398842  0.21528281220536694  0.41981247039173764  1.0000
