data_image0
_chemical_formula_structural       NC9NC3OH6C6SCNH4C9H10Zn2C4O8
_chemical_formula_sum              "N3 C32 O9 H20 S1 Zn2"
_cell_length_a       15.78231758774541
_cell_length_b       10.302215558581764
_cell_length_c       9.272679976505533
_cell_angle_alpha    86.02649692228
_cell_angle_beta     90.48255963298988
_cell_angle_gamma    89.65080806534476

_space_group_name_H-M_alt    "P 1"
_space_group_IT_number       1

loop_
  _space_group_symop_operation_xyz
  'x, y, z'

loop_
  _atom_site_type_symbol
  _atom_site_label
  _atom_site_symmetry_multiplicity
  _atom_site_fract_x
  _atom_site_fract_y
  _atom_site_fract_z
  _atom_site_occupancy
  N   N1        1.0  0.7917263636175789  0.40147909609746435  0.41259589025719623  1.0000
  C   C1        1.0  0.7432856543170778  0.31962899146947543  0.4393174055605559  1.0000
  C   C2        1.0  0.6831446889137889  0.21803311896074198  0.47248569025235226  1.0000
  C   C3        1.0  0.7029493205475396  0.09041169637752833  0.5140622459206876  1.0000
  C   C4        1.0  0.6262879169381367  0.02856195509752245  0.5342946336122736  1.0000
  C   C5        1.0  0.5644023212736937  0.12301674394542593  0.5035690503659267  1.0000
  C   C6        1.0  0.4713311560021137  0.10555423067759982  0.5093516133217191  1.0000
  C   C7        1.0  0.41746634424010765  0.2126292536812393  0.47433710713461585  1.0000
  C   C8        1.0  0.3292761395444872  0.19831046869796573  0.47908661941318553  1.0000
  C   C9        1.0  0.27471131018929446  0.3085008291188114  0.4430441934170886  1.0000
  N   N2        1.0  0.23085409224679343  0.3970796521147375  0.4140693036865488  1.0000
  C   C10       1.0  0.29426964671935546  0.07675731080352821  0.5189050077172743  1.0000
  C   C11       1.0  0.347203298153514  0.9699036972308782  0.5538519593288245  1.0000
  C   C12       1.0  0.4352082821321358  0.9838291120550139  0.5492315118055646  1.0000
  O   O1        1.0  0.6007359334361452  0.23495716752687534  0.46704704832449195  1.0000
  H   H1        1.0  0.7654574004253153  0.04737276783464093  0.5280269023984229  1.0000
  H   H2        1.0  0.6176690312528299  0.9268638982186586  0.5674428013281347  1.0000
  H   H3        1.0  0.4439658191923185  0.30721912592311407  0.44334609908271877  1.0000
  H   H4        1.0  0.2261671355079965  0.06463002705128958  0.5229252414669255  1.0000
  H   H5        1.0  0.3199727847838565  0.875960493831784  0.5846315670110598  1.0000
  H   H6        1.0  0.4743893907302518  0.8991935910656358  0.5769211170047621  1.0000
  C   C13       1.0  0.011209947552523126  0.01800768677943564  0.41329262651774623  1.0000
  C   C14       1.0  0.09631467416435718  0.013413880581878859  0.45894249518547503  1.0000
  C   C15       1.0  0.1386682957954134  0.8940903989067587  0.4821157411032709  1.0000
  C   C16       1.0  0.09653540971606306  0.7782373496591685  0.45906530811747276  1.0000
  C   C17       1.0  0.01137861325679946  0.7805410682267059  0.41338500419656116  1.0000
  C   C18       1.0  0.9691742374147799  0.9009419672409961  0.39080530406731634  1.0000
  S   S1        1.0  0.24739576182833056  0.8897401557801445  0.5397962229471457  1.0000
  C   C19       1.0  0.2201908513588955  0.878525538526382  0.72444747562647  1.0000
  N   N3        1.0  0.20232983968074636  0.871174049583056  0.8455020796275354  1.0000
  H   H7        1.0  0.13002912968820968  0.10217972785654636  0.4769446525190609  1.0000
  H   H8        1.0  0.130401170543053  0.6867205381763083  0.477151721369876  1.0000
  H   H9        1.0  0.9035380820925457  0.9036353802730307  0.3556185242000945  1.0000
  H   H10       1.0  0.8508938512350623  0.5776747115386008  0.32713467254850426  1.0000
  C   C20       1.0  0.009575700201523098  0.39622572465487876  0.9899700268610606  1.0000
  C   C21       1.0  0.06713992283446085  0.3153363117336018  0.07041971420849436  1.0000
  C   C22       1.0  0.12887907338372284  0.24492631888518712  0.002017445247295641  1.0000
  C   C23       1.0  0.13514175015954266  0.2530896186803955  0.851177198438892  1.0000
  C   C24       1.0  0.07656008976959798  0.3322271109551639  0.7693396083537313  1.0000
  C   C25       1.0  0.013012876432220374  0.40232307910054  0.8367076930534372  1.0000
  C   C26       1.0  0.20478045058901462  0.17418006959982746  0.7852531883822103  1.0000
  C   C27       1.0  0.18459172907906007  0.11496400351461288  0.6430784219986081  1.0000
  C   C28       1.0  0.24421453259846304  0.2306217004064166  0.64547400875436  1.0000
  H   H11       1.0  0.882016006606469  0.48528818441260846  0.262503497982855  1.0000
  H   H12       1.0  0.06579711420784567  0.3088005202090327  0.1874890216114078  1.0000
  H   H13       1.0  0.172729630906852  0.18448509871600802  0.06778974855247788  1.0000
  H   H14       1.0  0.07845667469184328  0.33782092275811326  0.6525677445614151  1.0000
  H   H15       1.0  0.8206752470305667  0.5263940012764948  0.7213743449234524  1.0000
  H   H16       1.0  0.24905217872618335  0.11532984915933883  0.8575809674587439  1.0000
  H   H17       1.0  0.12165952402343078  0.13775083648224373  0.5931883349866993  1.0000
  H   H18       1.0  0.21748216239555251  0.02116414325438408  0.6288835178657031  1.0000
  H   H19       1.0  0.21754063055984885  0.32360436824197447  0.59692254267922  1.0000
  H   H20       1.0  0.31196177940127146  0.20441009242202668  0.6326754233128731  1.0000
  Zn  Zn1       1.0  0.9184491697750263  0.40020610340764873  0.413029403841868  1.0000
  Zn  Zn2       1.0  0.10413130309360413  0.3983421329031431  0.4136475743045403  1.0000
  C   C29       1.0  0.012360150497084716  0.3959981919081956  0.6766554679095185  1.0000
  C   C30       1.0  0.010222350951496706  0.4025516632689271  0.15002165869007622  1.0000
  C   C31       1.0  0.011319071767211145  0.636364724525861  0.40762244892746713  1.0000
  C   C32       1.0  0.01126336628795798  0.16218357193597538  0.41905475413596815  1.0000
  O   O2        1.0  0.08090477350114411  0.40396167466657396  0.20397104020408316  1.0000
  O   O3        1.0  0.08260616884275213  0.39317248756569245  0.6231748483370436  1.0000
  O   O4        1.0  0.08176454078015084  0.5872715228347605  0.40592877905694347  1.0000
  O   O5        1.0  0.08174633776625834  0.20986264854299194  0.4212170011758974  1.0000
  O   O6        1.0  0.9408340717381422  0.58868558840524  0.4054599767519762  1.0000
  O   O7        1.0  0.9416756998299266  0.39458811248889897  0.6227059693497015  1.0000
  O   O8        1.0  0.9399742974983958  0.40537724186293106  0.20350042785479053  1.0000
  O   O9        1.0  0.9408158621967668  0.21127820723130353  0.4207464969163568  1.0000
