data_image0
_chemical_formula_structural       NC9NC3OH6C6FH5C9H8Zn2C4O8
_chemical_formula_sum              "N2 C31 O9 H19 F1 Zn2"
_cell_length_a       15.78231758774541
_cell_length_b       9.275642734913905
_cell_length_c       9.275155815604963
_cell_angle_alpha    85.96646772288662
_cell_angle_beta     90.4446892459172
_cell_angle_gamma    90.23470761467162

_space_group_name_H-M_alt    "P 1"
_space_group_IT_number       1

loop_
  _space_group_symop_operation_xyz
  'x, y, z'

loop_
  _atom_site_type_symbol
  _atom_site_label
  _atom_site_symmetry_multiplicity
  _atom_site_fract_x
  _atom_site_fract_y
  _atom_site_fract_z
  _atom_site_occupancy
  N   N1        1.0  0.8016534844932742  0.5558307110426118  0.41069972680670414  1.0000
  C   C1        1.0  0.7526585525499235  0.46492838956576565  0.4375526097057988  1.0000
  C   C2        1.0  0.6918296619988941  0.3520965161397449  0.4708839533893219  1.0000
  C   C3        1.0  0.7107701787017033  0.21036074509996447  0.512665366067359  1.0000
  C   C4        1.0  0.6336899630883398  0.1416707513089135  0.532997008597871  1.0000
  C   C5        1.0  0.5724438958204601  0.24657183610714384  0.5021197928307113  1.0000
  C   C6        1.0  0.479254456956243  0.22717810180141676  0.5079303572260954  1.0000
  C   C7        1.0  0.42611469295526355  0.3460950598765134  0.4727440160904701  1.0000
  C   C8        1.0  0.3378275040519372  0.33019273082176803  0.4775164862956405  1.0000
  C   C9        1.0  0.2840088212047523  0.45256956102863427  0.4412972286981763  1.0000
  N   N2        1.0  0.2407514092736887  0.5509447315078613  0.4121801896388759  1.0000
  C   C10       1.0  0.30199789936082466  0.19519647181250063  0.5175299224942537  1.0000
  C   C11       1.0  0.35420800040859557  0.07652541265630329  0.5526483522189889  1.0000
  C   C12       1.0  0.442307304762266  0.09199086712370688  0.5480055779189138  1.0000
  O   O1        1.0  0.6095354689739336  0.3708923301956885  0.4654181216910343  1.0000
  H   H1        1.0  0.7729868671790828  0.16256187465317298  0.5266991260171376  1.0000
  H   H2        1.0  0.6243824810496501  0.028725361896515096  0.5663084160252305  1.0000
  H   H3        1.0  0.45325469666745  0.4511460412694424  0.44160122789467193  1.0000
  H   H4        1.0  0.233813248364996  0.18172800529793043  0.5215696011802144  1.0000
  H   H5        1.0  0.32634133710642554  0.9721926183209748  0.5835787022445196  1.0000
  H   H6        1.0  0.48091530739195504  0.9979951095426248  0.5758310028844436  1.0000
  C   C13       1.0  0.01858870996396389  0.12987818556262964  0.4120508413951165  1.0000
  C   C14       1.0  0.0017043092326507457  0.21225739018957612  0.28179461864325894  1.0000
  C   C15       1.0  0.9928138459610899  0.14596159623367888  0.15200993841240965  1.0000
  C   C16       1.0  0.0007358761964144638  0.9965667597044905  0.15018803888167653  1.0000
  C   C17       1.0  0.016081424793152884  0.9125978234113592  0.27842295808530504  1.0000
  C   C18       1.0  0.02382426492822141  0.9768861915287953  0.4108415435020192  1.0000
  F   F1        1.0  0.9774778268735786  0.22715786207207866  0.027294340287581823  1.0000
  H   H7        1.0  0.10734023657517812  0.2108094389786939  0.7342710974057277  1.0000
  H   H8        1.0  0.997371341284916  0.3289150948430699  0.2799355043037879  1.0000
  H   H9        1.0  0.9941744366101528  0.9453101765902147  0.04936971853276707  1.0000
  H   H10       1.0  0.019892967112760992  0.7963613666057269  0.27447481736045565  1.0000
  H   H11       1.0  0.08019994270417036  0.6807173894077363  0.6296019865188212  1.0000
  C   C19       1.0  0.019631537571497926  0.5497540851723008  0.9882149377613372  1.0000
  C   C20       1.0  0.9537841693850119  0.6207641382488269  0.05570600680306481  1.0000
  C   C21       1.0  0.8936711349763532  0.7012958551403001  0.9741028851369737  1.0000
  C   C22       1.0  0.8982918546789939  0.7125022505421281  0.8235203602958123  1.0000
  C   C23       1.0  0.962429419396445  0.640736309530108  0.7543162841874497  1.0000
  C   C24       1.0  0.022781400363949253  0.5570102529245735  0.8346774222732573  1.0000
  C   C25       1.0  0.8364869720906333  0.7964223800963283  0.7395940353869874  1.0000
  C   C26       1.0  0.7847365393515191  0.8666939979691706  0.6692905590056157  1.0000
  C   C27       1.0  0.7219466995174537  0.9519567184483948  0.5839777026938513  1.0000
  H   H12       1.0  0.21557342403264756  0.4312079106338356  0.10200196616828652  1.0000
  H   H13       1.0  0.9499529065245129  0.6168087265223412  0.17249041854981417  1.0000
  H   H14       1.0  0.8440069312366462  0.7560582838867875  0.02866994911646991  1.0000
  H   H15       1.0  0.9640368171485412  0.6475005033459458  0.6371655842176758  1.0000
  H   H16       1.0  0.1534851450896233  0.4720320051503382  0.5616566909097558  1.0000
  H   H17       1.0  0.7391896515744193  0.955908807133309  0.4680308481264466  1.0000
  H   H18       1.0  0.6585257167048926  0.9013027997034639  0.5988645479113717  1.0000
  H   H19       1.0  0.7204907643424333  0.06334083415106084  0.6203162098397936  1.0000
  Zn  Zn1       1.0  0.928367664036521  0.5544169418870235  0.41113527791444765  1.0000
  Zn  Zn2       1.0  0.11403717232289717  0.5523468309661277  0.4117564369943265  1.0000
  C   C28       1.0  0.022148618435469322  0.5498933768232215  0.6746861193249964  1.0000
  C   C29       1.0  0.020258257203458193  0.5568721943213526  0.14820574122711094  1.0000
  C   C30       1.0  0.022808884897564042  0.8167344676630641  0.4053268839511304  1.0000
  C   C31       1.0  0.019597916961004765  0.2900293721331566  0.4175650557016859  1.0000
  O   O2        1.0  0.09092916191607897  0.5584692086740377  0.20213585202071802  1.0000
  O   O3        1.0  0.0923965661433172  0.5467241046439291  0.6212270405710829  1.0000
  O   O4        1.0  0.092928795395603  0.762201683600179  0.4037175469267106  1.0000
  O   O5        1.0  0.09039686896900907  0.34299163981459047  0.41964523737504866  1.0000
  O   O6        1.0  0.9520079040304992  0.7637721337464932  0.40324647731417107  1.0000
  O   O7        1.0  0.9514756851986638  0.5482962868465281  0.6207558916382805  1.0000
  O   O8        1.0  0.9500082742690088  0.5600413257651427  0.20166297036633085  1.0000
  O   O9        1.0  0.9494759816568134  0.34456374751682506  0.41917246379114975  1.0000
