data_image0
_chemical_formula_structural       NC9NC3SH6C8NH7C6SCNH5Zn2C4O8
_chemical_formula_sum              "N4 C31 S2 H18 Zn2 O8"
_cell_length_a       16.77567553997237
_cell_length_b       9.274263428431858
_cell_length_c       10.302218930750287
_cell_angle_alpha    85.51116070618167
_cell_angle_beta     90.41546648822373
_cell_angle_gamma    91.51050711931723

_space_group_name_H-M_alt    "P 1"
_space_group_IT_number       1

loop_
  _space_group_symop_operation_xyz
  'x, y, z'

loop_
  _atom_site_type_symbol
  _atom_site_label
  _atom_site_symmetry_multiplicity
  _atom_site_fract_x
  _atom_site_fract_y
  _atom_site_fract_z
  _atom_site_occupancy
  N   N1        1.0  0.7599501665528289  0.599720139189913  0.5739646557594469  1.0000
  C   C1        1.0  0.7055373808663851  0.6545138518964313  0.6155298843317096  1.0000
  C   C2        1.0  0.6380102921516049  0.7225092266705437  0.6671091525576416  1.0000
  C   C3        1.0  0.6407498859776461  0.8203579794050665  0.7620971595942961  1.0000
  C   C4        1.0  0.5654078631935273  0.868648882330026  0.7935797869949848  1.0000
  C   C5        1.0  0.503030565997829  0.8086166028550086  0.7230087769260448  1.0000
  C   C6        1.0  0.41671515989776425  0.8375706133127359  0.7338441999453669  1.0000
  C   C7        1.0  0.3593578611496556  0.7491624710798412  0.67561096735759  1.0000
  C   C8        1.0  0.2778785879413306  0.7758831838685791  0.6853910351717634  1.0000
  C   C9        1.0  0.2198358128191121  0.6845106640636384  0.6257641389072656  1.0000
  N   N2        1.0  0.1731865251257962  0.6110602520934003  0.5778329243789795  1.0000
  C   C10       1.0  0.2529288328162106  0.8913603613900521  0.753243092514379  1.0000
  C   C11       1.0  0.3091954356120565  0.9799449596536747  0.8110147470397604  1.0000
  C   C12       1.0  0.39051952711457977  0.9536277501015482  0.8015290243322849  1.0000
  S   S1        1.0  0.5429163226745574  0.6952178040009362  0.6219730965235658  1.0000
  H   H1        1.0  0.6953740262502367  0.8557480021175442  0.8078393047892047  1.0000
  H   H2        1.0  0.5576090607036079  0.9440723351045782  0.8670126076767664  1.0000
  H   H3        1.0  0.3776044052530595  0.6588538585135681  0.6232152831212947  1.0000
  H   H4        1.0  0.1900755137453198  0.9129763291790123  0.7613194371603714  1.0000
  H   H5        1.0  0.2897641146627573  0.06957425802769587  0.8630933348118425  1.0000
  H   H6        1.0  0.4323983915020633  0.025432459516125057  0.8462452516617825  1.0000
  C   C13       1.0  0.9640489598819179  0.18173757257316625  0.5761511377962945  1.0000
  C   C14       1.0  0.9537210243487304  0.2648359673887186  0.45739521208991585  1.0000
  C   C15       1.0  0.9512140470198395  0.1998777358816615  0.3397866277269268  1.0000
  C   C16       1.0  0.9596211715445369  0.050326957905891805  0.3380310140296552  1.0000
  C   C17       1.0  0.9678090295870947  0.9656653797764815  0.4559710158300285  1.0000
  C   C18       1.0  0.9690953031923013  0.029031995572503362  0.5756577984257083  1.0000
  C   C19       1.0  0.955728657785198  0.9802559043521004  0.21131344764800852  1.0000
  C   C20       1.0  0.8729915537805155  0.9390544375413306  0.1816827801866121  1.0000
  N   N3        1.0  0.8076889234012035  0.9065336507991639  0.1583045120692239  1.0000
  H   H7        1.0  0.03291444199366356  0.26183840431656674  0.8761356284706632  1.0000
  H   H8        1.0  0.9493127628920753  0.38133429040221656  0.45522745175733315  1.0000
  H   H9        1.0  0.9434593286250691  0.26660956312096884  0.24973596089675842  1.0000
  H   H10       1.0  0.971251649163424  0.8492706080427029  0.45429300945403894  1.0000
  H   H11       1.0  0.012357279525340378  0.7326864275673094  0.7793587113181961  1.0000
  H   H12       1.0  0.9925692561755498  0.8821506759135812  0.21668287033447253  1.0000
  H   H13       1.0  0.9792618034250304  0.05572973795491487  0.13073460204966203  1.0000
  C   C21       1.0  0.9664981865418024  0.6054502942855282  0.19462855589122333  1.0000
  C   C22       1.0  0.04119699176698988  0.5402908425895963  0.1991493897704433  1.0000
  C   C23       1.0  0.07832888338038413  0.5074130118728051  0.08442163932418167  1.0000
  C   C24       1.0  0.04139034991567159  0.5401175018543293  0.963997066953961  1.0000
  C   C25       1.0  0.9666460568083489  0.6053192155668938  0.9571803571760633  1.0000
  C   C26       1.0  0.9295965563771567  0.6375744698824661  0.07306875084483068  1.0000
  S   S2        1.0  0.17382268119625377  0.4248012000533172  0.09163197564087788  1.0000
  C   C27       1.0  0.13107411594627538  0.24836218230477594  0.10360645815809977  1.0000
  N   N4        1.0  0.10302474203230383  0.13269751639165328  0.11145650660136064  1.0000
  H   H14       1.0  0.9380811235315252  0.6303161452942561  0.5202382152430971  1.0000
  H   H15       1.0  0.07079688352833324  0.5145591534793577  0.29151525450258653  1.0000
  H   H16       1.0  0.07112277426586891  0.5142669305028991  0.876097029976306  1.0000
  H   H17       1.0  0.8719839148496712  0.6878081394755149  0.06873536555143933  1.0000
  H   H18       1.0  0.8257998575629341  0.728357725222353  0.737104466460035  1.0000
  Zn  Zn1       1.0  0.8792012346292918  0.6029887977386699  0.5750884625100856  1.0000
  Zn  Zn2       1.0  0.05393538405803854  0.6077798227242992  0.576719786994838  1.0000
  C   C28       1.0  0.9665821077501081  0.5995966506100361  0.8130450716972999  1.0000
  C   C29       1.0  0.9665564298948022  0.6111738424484303  0.3387633219970845  1.0000
  C   C30       1.0  0.9681363247978548  0.8688760543514962  0.570577086935153  1.0000
  C   C31       1.0  0.965002142912699  0.34189270376098113  0.5812313764335748  1.0000
  O   O1        1.0  0.032886638484151076  0.6149065925868924  0.38775534899459707  1.0000
  O   O2        1.0  0.03287106894968139  0.5994990892950793  0.7652908091162954  1.0000
  O   O3        1.0  0.034125225233373684  0.8169455885773368  0.5694961867005823  1.0000
  O   O4        1.0  0.03163242261811594  0.3974601020067794  0.5835498734967212  1.0000
  O   O5        1.0  0.9015041364410331  0.8133085168228202  0.568258375444681  1.0000
  O   O6        1.0  0.9002499904635156  0.5958637508531814  0.7640529276225299  1.0000
  O   O7        1.0  0.900265559448862  0.6112712041410855  0.3865159065107234  1.0000
  O   O8        1.0  0.8990113435369882  0.39382470322545765  0.5823105283629151  1.0000
