data_image0
_chemical_formula_structural       Er4H32C72N12O32
_chemical_formula_sum              "Er4 H32 C72 N12 O32"
_cell_length_a       9.7494
_cell_length_b       11.0484
_cell_length_c       20.4845
_cell_angle_alpha    90.0
_cell_angle_beta     90.0
_cell_angle_gamma    108.898

_space_group_name_H-M_alt    "P 1"
_space_group_IT_number       1

loop_
  _space_group_symop_operation_xyz
  'x, y, z'

loop_
  _atom_site_type_symbol
  _atom_site_label
  _atom_site_symmetry_multiplicity
  _atom_site_fract_x
  _atom_site_fract_y
  _atom_site_fract_z
  _atom_site_occupancy
  Er  Er1       1.0  0.30016  0.31522  0.9653400000000001  1.0000
  Er  Er2       1.0  0.19984  0.68478  0.46534  1.0000
  Er  Er3       1.0  0.6998399999999999  0.68478  0.03466  1.0000
  Er  Er4       1.0  0.80016  0.31522  0.5346600000000001  1.0000
  H   H1        1.0  0.7504  0.6628  0.3431  1.0000
  H   H2        1.0  0.1928  0.2936  0.17080000000000004  1.0000
  H   H3        1.0  0.9928999999999999  0.1309  0.20770000000000002  1.0000
  H   H4        1.0  0.3203  0.3668  0.3581  1.0000
  H   H5        1.0  0.7714  0.9823  0.1858  1.0000
  H   H6        1.0  0.5804  0.5512  0.21190000000000003  1.0000
  H   H7        1.0  0.3894  0.7439  0.24890000000000004  1.0000
  H   H8        1.0  0.6853999999999999  0.9478999999999999  0.3777  1.0000
  H   H9        1.0  0.7495999999999999  0.3372  0.8431000000000001  1.0000
  H   H10       1.0  0.3071999999999999  0.7064  0.6708000000000001  1.0000
  H   H11       1.0  0.5070999999999999  0.8691  0.7077  1.0000
  H   H12       1.0  0.1797  0.6332  0.8581  1.0000
  H   H13       1.0  0.7286  0.0177  0.6858  1.0000
  H   H14       1.0  0.9195999999999999  0.4487999999999999  0.7119  1.0000
  H   H15       1.0  0.1106  0.2561  0.7489  1.0000
  H   H16       1.0  0.8146  0.052099999999999994  0.8777000000000001  1.0000
  H   H17       1.0  0.2496  0.3372  0.6569000000000002  1.0000
  H   H18       1.0  0.8071999999999999  0.7064  0.8292  1.0000
  H   H19       1.0  0.0071  0.8691  0.7923000000000001  1.0000
  H   H20       1.0  0.6797  0.6332  0.6419  1.0000
  H   H21       1.0  0.2286  0.0177  0.8142000000000001  1.0000
  H   H22       1.0  0.4196  0.4487999999999999  0.7881  1.0000
  H   H23       1.0  0.6106  0.2561  0.7511  1.0000
  H   H24       1.0  0.3146  0.052099999999999994  0.6223  1.0000
  H   H25       1.0  0.25039999999999996  0.6628  0.1569  1.0000
  H   H26       1.0  0.6928  0.2936  0.3292  1.0000
  H   H27       1.0  0.4929  0.1309  0.2923  1.0000
  H   H28       1.0  0.8203  0.3668  0.1419  1.0000
  H   H29       1.0  0.2714  0.9823  0.3142  1.0000
  H   H30       1.0  0.08039999999999997  0.5512  0.2881  1.0000
  H   H31       1.0  0.8894  0.7439  0.2511  1.0000
  H   H32       1.0  0.18539999999999995  0.9478999999999999  0.12230000000000002  1.0000
  C   C1        1.0  0.748  0.9827  0.2833  1.0000
  C   C2        1.0  0.5231  0.8356  0.32160000000000005  1.0000
  C   C3        1.0  0.574  0.856  0.2065  1.0000
  C   C4        1.0  0.2607999999999999  0.3387  0.2014  1.0000
  C   C5        1.0  0.9928  0.1425  0.2527  1.0000
  C   C6        1.0  0.3374  0.3827  0.3138  1.0000
  C   C7        1.0  0.4205999999999999  0.7731999999999999  0.3755  1.0000
  C   C8        1.0  0.2337  0.3168  0.26800000000000007  1.0000
  C   C9        1.0  0.7082  0.9463  0.2198  1.0000
  C   C10       1.0  0.4198  0.4512999999999999  0.1091  1.0000
  C   C11       1.0  0.5355  0.813  0.13680000000000003  1.0000
  C   C12       1.0  0.4662  0.4724  0.29270000000000007  1.0000
  C   C13       1.0  0.3902  0.4283  0.18090000000000003  1.0000
  C   C14       1.0  0.493  0.4933  0.22600000000000003  1.0000
  C   C15       1.0  0.5741  0.5422  0.34160000000000007  1.0000
  C   C16       1.0  0.0981  0.2251  0.289  1.0000
  C   C17       1.0  0.4805  0.8022  0.25760000000000005  1.0000
  C   C18       1.0  0.6569  0.9258  0.3349  1.0000
  C   C19       1.0  0.7519999999999999  0.017299999999999996  0.7833000000000001  1.0000
  C   C20       1.0  0.9768999999999999  0.1644  0.8216  1.0000
  C   C21       1.0  0.926  0.144  0.7065  1.0000
  C   C22       1.0  0.2392  0.6613  0.7014  1.0000
  C   C23       1.0  0.5071999999999999  0.8575  0.7527000000000001  1.0000
  C   C24       1.0  0.16260000000000002  0.6173  0.8138  1.0000
  C   C25       1.0  0.0794  0.2268  0.8755  1.0000
  C   C26       1.0  0.2663  0.6832  0.768  1.0000
  C   C27       1.0  0.7918  0.0537  0.7198000000000001  1.0000
  C   C28       1.0  0.0802  0.5487  0.6091  1.0000
  C   C29       1.0  0.9644999999999999  0.18699999999999997  0.6368  1.0000
  C   C30       1.0  0.033800000000000004  0.5276  0.7927  1.0000
  C   C31       1.0  0.10979999999999997  0.5717  0.6809  1.0000
  C   C32       1.0  0.006999999999999991  0.5067  0.726  1.0000
  C   C33       1.0  0.9258999999999998  0.45779999999999993  0.8416000000000002  1.0000
  C   C34       1.0  0.4019  0.7749  0.7890000000000001  1.0000
  C   C35       1.0  0.019499999999999993  0.19779999999999998  0.7576  1.0000
  C   C36       1.0  0.8430999999999998  0.0742  0.8349  1.0000
  C   C37       1.0  0.252  0.017299999999999996  0.7167  1.0000
  C   C38       1.0  0.4769  0.1644  0.6784000000000001  1.0000
  C   C39       1.0  0.42600000000000005  0.144  0.7935  1.0000
  C   C40       1.0  0.7392  0.6613  0.7986  1.0000
  C   C41       1.0  0.007199999999999987  0.8575  0.7473  1.0000
  C   C42       1.0  0.6626  0.6173  0.6862  1.0000
  C   C43       1.0  0.5794  0.2268  0.6245  1.0000
  C   C44       1.0  0.7662999999999999  0.6832  0.7320000000000001  1.0000
  C   C45       1.0  0.2918  0.0537  0.7802  1.0000
  C   C46       1.0  0.5802  0.5487  0.8909  1.0000
  C   C47       1.0  0.4645  0.18699999999999997  0.8632  1.0000
  C   C48       1.0  0.5338  0.5276  0.7073  1.0000
  C   C49       1.0  0.6097999999999999  0.5717  0.8191000000000003  1.0000
  C   C50       1.0  0.5069999999999999  0.5067  0.7740000000000002  1.0000
  C   C51       1.0  0.42589999999999995  0.45779999999999993  0.6584  1.0000
  C   C52       1.0  0.9018999999999999  0.7749  0.711  1.0000
  C   C53       1.0  0.5195  0.19779999999999998  0.7424000000000002  1.0000
  C   C54       1.0  0.3431  0.0742  0.6651  1.0000
  C   C55       1.0  0.24800000000000003  0.9827  0.21670000000000003  1.0000
  C   C56       1.0  0.023099999999999895  0.8356  0.1784  1.0000
  C   C57       1.0  0.07400000000000001  0.856  0.2935  1.0000
  C   C58       1.0  0.7607999999999999  0.3387  0.2986  1.0000
  C   C59       1.0  0.4928  0.1425  0.24730000000000005  1.0000
  C   C60       1.0  0.8374  0.3827  0.18620000000000003  1.0000
  C   C61       1.0  0.9205999999999999  0.7731999999999999  0.1245  1.0000
  C   C62       1.0  0.7337  0.3168  0.232  1.0000
  C   C63       1.0  0.20819999999999994  0.9463  0.28020000000000006  1.0000
  C   C64       1.0  0.9197999999999998  0.4512999999999999  0.3909  1.0000
  C   C65       1.0  0.035500000000000004  0.813  0.3632000000000001  1.0000
  C   C66       1.0  0.9662  0.4724  0.2073  1.0000
  C   C67       1.0  0.8902  0.4283  0.3191  1.0000
  C   C68       1.0  0.993  0.4933  0.274  1.0000
  C   C69       1.0  0.0741  0.5422  0.1584  1.0000
  C   C70       1.0  0.5981000000000001  0.2251  0.211  1.0000
  C   C71       1.0  0.9804999999999999  0.8022  0.2424  1.0000
  C   C72       1.0  0.1568999999999999  0.9258  0.1651  1.0000
  N   N1        1.0  0.929  0.1256  0.3568  1.0000
  N   N2        1.0  0.056499999999999995  0.2136  0.3532  1.0000
  N   N3        1.0  0.8865999999999999  0.0797  0.2957  1.0000
  N   N4        1.0  0.5709999999999998  0.8744  0.8568  1.0000
  N   N5        1.0  0.4435  0.7864  0.8532  1.0000
  N   N6        1.0  0.6134  0.9202999999999999  0.7957000000000001  1.0000
  N   N7        1.0  0.07100000000000001  0.8744  0.6432000000000001  1.0000
  N   N8        1.0  0.9435  0.7864  0.6468  1.0000
  N   N9        1.0  0.11339999999999995  0.9202999999999999  0.7043000000000001  1.0000
  N   N10       1.0  0.429  0.1256  0.1432  1.0000
  N   N11       1.0  0.5564999999999999  0.2136  0.1468  1.0000
  N   N12       1.0  0.3866  0.0797  0.20430000000000006  1.0000
  O   O1        1.0  0.3215999999999999  0.39359999999999995  0.07010000000000001  1.0000
  O   O2        1.0  0.6895  0.6217  0.3142  1.0000
  O   O3        1.0  0.4063  0.7617  0.12  1.0000
  O   O4        1.0  0.4388  0.8205  0.4323  1.0000
  O   O5        1.0  0.316  0.6741  0.3631  1.0000
  O   O6        1.0  0.541  0.5257  0.0917  1.0000
  O   O7        1.0  0.6410999999999998  0.8321999999999999  0.0986  1.0000
  O   O8        1.0  0.5596  0.5301  0.4000000000000001  1.0000
  O   O9        1.0  0.17840000000000003  0.6063999999999999  0.5701  1.0000
  O   O10       1.0  0.8105  0.3783  0.8142000000000001  1.0000
  O   O11       1.0  0.09369999999999999  0.2383  0.62  1.0000
  O   O12       1.0  0.06119999999999999  0.1795  0.9323  1.0000
  O   O13       1.0  0.184  0.3259  0.8631  1.0000
  O   O14       1.0  0.9590000000000001  0.4743  0.5917  1.0000
  O   O15       1.0  0.8588999999999999  0.1678  0.5986  1.0000
  O   O16       1.0  0.9404  0.4699  0.9000000000000001  1.0000
  O   O17       1.0  0.6783999999999999  0.6063999999999999  0.9299  1.0000
  O   O18       1.0  0.3105  0.3783  0.6858  1.0000
  O   O19       1.0  0.5937  0.2383  0.88  1.0000
  O   O20       1.0  0.5612  0.1795  0.5677  1.0000
  O   O21       1.0  0.684  0.3259  0.6369  1.0000
  O   O22       1.0  0.459  0.4743  0.9083000000000002  1.0000
  O   O23       1.0  0.35890000000000005  0.1678  0.9014000000000001  1.0000
  O   O24       1.0  0.4404  0.4699  0.6  1.0000
  O   O25       1.0  0.8215999999999999  0.39359999999999995  0.42990000000000006  1.0000
  O   O26       1.0  0.18949999999999997  0.6217  0.1858  1.0000
  O   O27       1.0  0.9062999999999999  0.7617  0.38  1.0000
  O   O28       1.0  0.9388  0.8205  0.0677  1.0000
  O   O29       1.0  0.8159999999999998  0.6741  0.1369  1.0000
  O   O30       1.0  0.04099999999999997  0.5257  0.4083000000000001  1.0000
  O   O31       1.0  0.14109999999999995  0.8321999999999999  0.40140000000000003  1.0000
  O   O32       1.0  0.059599999999999986  0.5301  0.10000000000000002  1.0000
