data_image0
_chemical_formula_structural       NC9NC3SH6C6NCOCH7C7F3H2Zn2C4O8
_chemical_formula_sum              "N3 C31 S1 H15 O9 F3 Zn2"
_cell_length_a       16.77567553997237
_cell_length_b       10.300268703208216
_cell_length_c       9.272721663655245
_cell_angle_alpha    85.87639938124998
_cell_angle_beta     90.90861439337802
_cell_angle_gamma    90.87327597949842

_space_group_name_H-M_alt    "P 1"
_space_group_IT_number       1

loop_
  _space_group_symop_operation_xyz
  'x, y, z'

loop_
  _atom_site_type_symbol
  _atom_site_label
  _atom_site_symmetry_multiplicity
  _atom_site_fract_x
  _atom_site_fract_y
  _atom_site_fract_z
  _atom_site_occupancy
  N   N1        1.0  0.7425114991054312  0.4316794318921924  0.41719231188234174  1.0000
  C   C1        1.0  0.6879838786584308  0.4812432221332872  0.4633918878442784  1.0000
  C   C2        1.0  0.6203142852909153  0.542748606390463  0.5207220269404085  1.0000
  C   C3        1.0  0.622959609493529  0.6313786929045632  0.6262832973534078  1.0000
  C   C4        1.0  0.5474888986373442  0.6750303997907867  0.6612804448224248  1.0000
  C   C5        1.0  0.48510383123382417  0.6205824667221727  0.5828621618271101  1.0000
  C   C6        1.0  0.3986683571559069  0.646708167346852  0.5949150676097228  1.0000
  C   C7        1.0  0.3415434686878196  0.5667897217948719  0.5301816328576201  1.0000
  C   C8        1.0  0.25995221679981  0.5908990024711991  0.5410609774398019  1.0000
  C   C9        1.0  0.20215262756899108  0.508304094633441  0.4747777707795815  1.0000
  N   N2        1.0  0.1556988278991904  0.4419096263703055  0.421495865924733  1.0000
  C   C10       1.0  0.2346550721643333  0.6952393301697031  0.6164948943770492  1.0000
  C   C11       1.0  0.2906857173176921  0.7753139264630149  0.6807157888858906  1.0000
  C   C12       1.0  0.3721208791848415  0.7515695673546726  0.6701636175431611  1.0000
  S   S1        1.0  0.5251471224039801  0.5179199783266772  0.4705740834899283  1.0000
  H   H1        1.0  0.6776104203085227  0.6635007252446496  0.6771095731219545  1.0000
  H   H2        1.0  0.5396185761193066  0.7433491980755098  0.74288704618184  1.0000
  H   H3        1.0  0.36006525172560805  0.48519453641160104  0.47193047362713275  1.0000
  H   H4        1.0  0.1717120456630218  0.7147437134950283  0.6254787301749096  1.0000
  H   H5        1.0  0.27098163890061694  0.8562957892983685  0.7386143296828152  1.0000
  H   H6        1.0  0.4137972097466238  0.8164639736464421  0.7198737351282929  1.0000
  C   C13       1.0  0.9491900189983034  0.05544903916726219  0.41935351096183404  1.0000
  C   C14       1.0  0.9618845427172353  0.06440400901054534  0.2695951400026708  1.0000
  C   C15       1.0  0.9693704382952988  0.95164453873979  0.19445116429143172  1.0000
  C   C16       1.0  0.9617043596744325  0.829240207849216  0.26962923588667054  1.0000
  C   C17       1.0  0.949027987534722  0.8181303249396003  0.41934723632937554  1.0000
  C   C18       1.0  0.9431383160265304  0.9318430763383145  0.4935096901755562  1.0000
  N   N3        1.0  0.9811242230727283  0.9591900154613286  0.04074966884425835  1.0000
  C   C19       1.0  0.027543297482992782  0.05906167003092212  0.9637532985929607  1.0000
  O   O1        1.0  0.07289283851183703  0.1335110589726032  0.03081187363409543  1.0000
  C   C20       1.0  0.026771748465315156  0.06912524369683058  0.802216039906674  1.0000
  H   H7        1.0  0.9643689878109586  0.1590230377988755  0.21096042947161364  1.0000
  H   H8        1.0  0.9663595510709048  0.7426996979577613  0.21065332816258664  1.0000
  H   H9        1.0  0.9333691690829466  0.9241276310187114  0.6090203418077091  1.0000
  H   H10       1.0  0.958875179472056  0.8829269864175444  0.982580723001266  1.0000
  H   H11       1.0  0.9655482800418924  0.05037103097998963  0.7606975276875949  1.0000
  H   H12       1.0  0.04632838536596817  0.1680602908360167  0.7603741594786673  1.0000
  H   H13       1.0  0.067725662235669  0.9962163222435015  0.7629493185730465  1.0000
  C   C21       1.0  0.9469999727307236  0.434631182588062  0.9958852020352604  1.0000
  C   C22       1.0  0.9809549192469805  0.32925272996554705  0.07896183742607232  1.0000
  C   C23       1.0  0.021896157367153002  0.2317716881904741  0.01348384959691318  1.0000
  C   C24       1.0  0.026440060524328464  0.2378641730583822  0.8623813223697225  1.0000
  C   C25       1.0  0.9920131766857687  0.34052720375011775  0.7783314857010115  1.0000
  C   C26       1.0  0.9512180661122144  0.4389481795282736  0.8428155387427632  1.0000
  C   C27       1.0  0.05604155623748941  0.11780957694964346  0.10418753697180971  1.0000
  F   F1        1.0  0.08288349088059754  0.1562167839798152  0.23669983516993076  1.0000
  F   F2        1.0  0.11960528942160642  0.0656690166284124  0.03572999696258261  1.0000
  F   F3        1.0  0.9975280187669653  0.022886416802771828  0.1266143518541838  1.0000
  H   H14       1.0  0.8963966032147082  0.7426150065385625  0.07157567720896107  1.0000
  H   H15       1.0  0.8080964755221264  0.6544359763870566  0.7200326821373992  1.0000
  Zn  Zn1       1.0  0.8617484819864027  0.43462822039042126  0.41844256092111554  1.0000
  Zn  Zn2       1.0  0.03646190128355231  0.4389503045302874  0.42025745932445613  1.0000
  C   C28       1.0  0.9504200601934221  0.4329587515078467  0.6827276115592349  1.0000
  C   C29       1.0  0.9477922312984774  0.4406214598508318  0.15597257002797682  1.0000
  C   C30       1.0  0.9490259026319086  0.6739379168456148  0.41360197463196546  1.0000
  C   C31       1.0  0.9491863299568524  0.19964073322283338  0.4250982832300816  1.0000
  O   O2        1.0  0.014360953811328288  0.4442663946330405  0.21038809767463906  1.0000
  O   O3        1.0  0.016454778474445098  0.43259319680300123  0.6296891347029485  1.0000
  O   O4        1.0  0.015328092285947118  0.627186905942895  0.4123682694798261  1.0000
  O   O5        1.0  0.015487579841499068  0.24967269275684112  0.4277088541553044  1.0000
  O   O6        1.0  0.8827227438073028  0.6239058306903275  0.4109911654633458  1.0000
  O   O7        1.0  0.8838494292777861  0.4293136813671239  0.6283119537847126  1.0000
  O   O8        1.0  0.8817555960424872  0.4409868251079894  0.20900918300610472  1.0000
  O   O9        1.0  0.8828822226098318  0.24639311449455506  0.42633004760230664  1.0000
