data_image0
_chemical_formula_structural       NC9NC3SH6C6NCOCH7C9H10Zn2C4O8
_chemical_formula_sum              "N3 C33 S1 H23 O9 Zn2"
_cell_length_a       16.77567553997237
_cell_length_b       10.300268703208216
_cell_length_c       9.272679976505533
_cell_angle_alpha    86.02026342835288
_cell_angle_beta     90.7858477527611
_cell_angle_gamma    90.87327597949842

_space_group_name_H-M_alt    "P 1"
_space_group_IT_number       1

loop_
  _space_group_symop_operation_xyz
  'x, y, z'

loop_
  _atom_site_type_symbol
  _atom_site_label
  _atom_site_symmetry_multiplicity
  _atom_site_fract_x
  _atom_site_fract_y
  _atom_site_fract_z
  _atom_site_occupancy
  N   N1        1.0  0.7443552351164764  0.42813587883833415  0.41751263779454306  1.0000
  C   C1        1.0  0.6897737990211597  0.4778030996160101  0.4637028639653307  1.0000
  C   C2        1.0  0.6220374245514526  0.5394368332557402  0.5210214006859852  1.0000
  C   C3        1.0  0.6245597855431261  0.6283032478878735  0.626561307789663  1.0000
  C   C4        1.0  0.5490483082049754  0.6720333055742105  0.6615513725958451  1.0000
  C   C5        1.0  0.4867545864610504  0.6174098114767536  0.5831489597584922  1.0000
  C   C6        1.0  0.4003050725369812  0.6435624958666843  0.5951994262946516  1.0000
  C   C7        1.0  0.3432555889116093  0.5634991266059522  0.5304790921843341  1.0000
  C   C8        1.0  0.26165166420204755  0.5876327637059989  0.5413562350233712  1.0000
  C   C9        1.0  0.203929285068175  0.5048894625661715  0.47508644264512334  1.0000
  N   N2        1.0  0.15753755090857852  0.43837570801318476  0.42181532089102913  1.0000
  C   C10       1.0  0.2362666502504465  0.692141971103998  0.6167748857735538  1.0000
  C   C11       1.0  0.292222487594394  0.7723603436428808  0.6809827833676272  1.0000
  C   C12       1.0  0.37366994117483565  0.7485923605786611  0.6704327475552823  1.0000
  S   S1        1.0  0.5269286765748782  0.5144959351420344  0.47088360609051266  1.0000
  H   H1        1.0  0.6791513912912972  0.660539068912503  0.6773772974234689  1.0000
  H   H2        1.0  0.5410829261097103  0.7405348028208063  0.7431414585508822  1.0000
  H   H3        1.0  0.3618452259033332  0.4817735298816628  0.47223972172380146  1.0000
  H   H4        1.0  0.173313158913955  0.7116664672320446  0.6257569034380939  1.0000
  H   H5        1.0  0.272450965971517  0.8534718283853018  0.7388696067569132  1.0000
  H   H6        1.0  0.4152883668284013  0.8135980567259825  0.7201328048918574  1.0000
  C   C13       1.0  0.9510312375332203  0.051910324555657576  0.4196733994942631  1.0000
  C   C14       1.0  0.9639002075247893  0.06053001883973197  0.2699453363780222  1.0000
  C   C15       1.0  0.9714736346804869  0.9476023179831581  0.19481656817603765  1.0000
  C   C16       1.0  0.9637199847653424  0.8253662940114753  0.2699794253617547  1.0000
  C   C17       1.0  0.9508692133786546  0.8145915962804934  0.41966712613165363  1.0000
  C   C18       1.0  0.9448931536201087  0.9284703808566949  0.4938145711072953  1.0000
  N   N3        1.0  0.9834064588852797  0.9548036913700569  0.041146178574574595  1.0000
  C   C19       1.0  0.02991522263785496  0.05450296825600142  0.9641653907169704  1.0000
  O   O1        1.0  0.07518665038068173  0.12910248637645605  0.031210394558405904  1.0000
  C   C20       1.0  0.02933184054860539  0.06420489606270174  0.8026608236647537  1.0000
  H   H7        1.0  0.9664529533527801  0.1550177776013091  0.2113224922393751  1.0000
  H   H8        1.0  0.9684438743401667  0.7386937502289237  0.21101545308098557  1.0000
  H   H9        1.0  0.9349894539133103  0.921013538098488  0.6093018458913761  1.0000
  H   H10       1.0  0.9612251734721499  0.8784104350426746  0.9829890048633319  1.0000
  H   H11       1.0  0.968156735029077  0.04535773266595844  0.7611507138911513  1.0000
  H   H12       1.0  0.04893721702911669  0.16304626857275717  0.7608274111249292  1.0000
  H   H13       1.0  0.07033149422071872  0.9912080651865535  0.763402049063016  1.0000
  C   C21       1.0  0.9493344689876062  0.43014441697154165  0.9962907913596202  1.0000
  C   C22       1.0  0.003531352353618232  0.3511590542773094  0.07712187520585025  1.0000
  C   C23       1.0  0.06165206705823478  0.2827942542184272  0.009126525571207864  1.0000
  C   C24       1.0  0.06754126026177554  0.2911678681708538  0.8583255533451881  1.0000
  C   C25       1.0  0.012387794536467883  0.3683670630746146  0.7761002418858203  1.0000
  C   C26       1.0  0.9525659841981151  0.43635750077303026  0.8430498012640313  1.0000
  C   C27       1.0  0.1330983302050508  0.21456529015468906  0.7928604614640888  1.0000
  C   C28       1.0  0.11412743014882354  0.15466510735468808  0.6505633915541923  1.0000
  C   C29       1.0  0.17017858516139195  0.2723321422203782  0.6533279220206611  1.0000
  H   H14       1.0  0.8292745791963668  0.514970768479853  0.26799090381636925  1.0000
  H   H15       1.0  0.0022706368733909064  0.3445772758477894  0.19418338763623377  1.0000
  H   H16       1.0  0.10293699939025025  0.22380369739483652  0.07518921028118553  1.0000
  H   H17       1.0  0.014169960915237034  0.3740251484746272  0.6593398635874612  1.0000
  H   H18       1.0  0.771541041187039  0.5540392092136508  0.7264612315361663  1.0000
  H   H19       1.0  0.17477887775704692  0.15718007121301494  0.8654811268732536  1.0000
  H   H20       1.0  0.05490418753462345  0.1753580903710006  0.6002649302519174  1.0000
  H   H21       1.0  0.14511388293220695  0.061944288854572926  0.636592630716434  1.0000
  H   H22       1.0  0.1450416841042943  0.3644428691175619  0.604592464864783  1.0000
  H   H23       1.0  0.23393379818234997  0.2483742743613189  0.6409691761888477  1.0000
  Zn  Zn1       1.0  0.8635907616428996  0.43108746636504397  0.41876263381005563  1.0000
  Zn  Zn2       1.0  0.03830206685280534  0.4354136136572613  0.42057716491736175  1.0000
  C   C30       1.0  0.951954486995336  0.4300096727095408  0.6829941988917407  1.0000
  C   C31       1.0  0.9499402495343743  0.4364930941119418  0.15634576114466484  1.0000
  C   C32       1.0  0.9508738208529146  0.6703863258281911  0.41392302715047735  1.0000
  C   C33       1.0  0.9510208566848076  0.19611487987382392  0.42541700914532626  1.0000
  O   O2        1.0  0.016445586034739005  0.44025985311235255  0.21075027626993054  1.0000
  O   O3        1.0  0.018050987229078608  0.42952537669578783  0.6299664558716671  1.0000
  O   O4        1.0  0.01717744759032969  0.6236325529350591  0.41268957167347664  1.0000
  O   O5        1.0  0.017319065641829393  0.2461526838933268  0.42802705174767186  1.0000
  O   O6        1.0  0.8845737032334525  0.6203483946540351  0.41131274635295134  1.0000
  O   O7        1.0  0.885447242243766  0.42624277805928845  0.6285895536649496  1.0000
  O   O8        1.0  0.8838418344968062  0.43697719650520006  0.20937164066378777  1.0000
  O   O9        1.0  0.8847153145151319  0.2428700187909858  0.42664852423518496  1.0000
