data_image0
_chemical_formula_structural       NC5NC3OH4C6NCH9C7F3H5Zn2C4O8
_chemical_formula_sum              "N3 C26 O9 H18 F3 Zn2"
_cell_length_a       13.84702359539666
_cell_length_b       9.273386996610926
_cell_length_c       10.299327507215196
_cell_angle_alpha    85.45811780594276
_cell_angle_beta     89.96690636176139
_cell_angle_gamma    89.39943260271846

_space_group_name_H-M_alt    "P 1"
_space_group_IT_number       1

loop_
  _space_group_symop_operation_xyz
  'x, y, z'

loop_
  _atom_site_type_symbol
  _atom_site_label
  _atom_site_symmetry_multiplicity
  _atom_site_fract_x
  _atom_site_fract_y
  _atom_site_fract_z
  _atom_site_occupancy
  N   N1        1.0  0.8986270180449152  0.5791413025072072  0.5647961834365778  1.0000
  C   C1        1.0  0.8265300135292188  0.5704597639950472  0.6216246899260525  1.0000
  C   C2        1.0  0.7367422072109907  0.5596494149138276  0.692388154453442  1.0000
  C   C3        1.0  0.6491014257845339  0.5700928979617825  0.6240255682442157  1.0000
  C   C4        1.0  0.561296004219563  0.5597707553897546  0.6915935175580108  1.0000
  C   C5        1.0  0.4713866438122036  0.5705231323401923  0.6212096277562125  1.0000
  N   N2        1.0  0.39911115189187213  0.5791672178575367  0.5646265915118331  1.0000
  C   C6        1.0  0.5611261808837454  0.5389739792209056  0.827727157943571  1.0000
  C   C7        1.0  0.6483867870845502  0.5285207616086673  0.8961510530556057  1.0000
  C   C8        1.0  0.7365079982671086  0.5387763822974625  0.8290198894449288  1.0000
  O   O1        1.0  0.8234890691801513  0.5283053192865136  0.8975622023326217  1.0000
  H   H1        1.0  0.6492375696949743  0.5862045687142518  0.5185609373651889  1.0000
  H   H2        1.0  0.4936155182580044  0.5308499056989573  0.8809062435420689  1.0000
  H   H3        1.0  0.6474721159154693  0.5124410477138799  0.0014071414472535111  1.0000
  H   H4        1.0  0.8251027674355913  0.5132562029405714  0.9960713515597217  1.0000
  C   C9        1.0  0.15184324581302167  0.1555003236526981  0.5653485590178222  1.0000
  C   C10       1.0  0.16882839556379703  0.23899484977458776  0.44791443787059904  1.0000
  C   C11       1.0  0.17672069873317198  0.17451041775624418  0.3304761395842246  1.0000
  C   C12       1.0  0.1677475368863739  0.0242097512964432  0.3274693657977794  1.0000
  C   C13       1.0  0.15246434930027175  0.9397524615828565  0.4444949902823847  1.0000
  C   C14       1.0  0.14590420187585607  0.00279706715153804  0.5640854513887772  1.0000
  N   N3        1.0  0.1748240427643093  0.9546892250280749  0.2076067693986916  1.0000
  C   C15       1.0  0.19094245471340354  0.03260603449079702  0.08086465738348592  1.0000
  H   H5        1.0  0.17152176369866678  0.41761329197243163  0.7785636945777439  1.0000
  H   H6        1.0  0.17375445367307507  0.35564124299260746  0.44631940790570646  1.0000
  H   H7        1.0  0.18892072929505233  0.24312672596738683  0.24225399519009214  1.0000
  H   H8        1.0  0.1479065626542322  0.8233514709720283  0.4424477213616067  1.0000
  H   H9        1.0  0.18138519298877664  0.8713883372445237  0.8803961477575594  1.0000
  H   H10       1.0  0.16799585312462217  0.8423213350909345  0.2103022102747023  1.0000
  H   H11       1.0  0.13107992697814486  0.11117996560198895  0.05831980368505141  1.0000
  H   H12       1.0  0.2608416896955825  0.09016136877785863  0.08105053875949175  1.0000
  H   H13       1.0  0.193395509974426  0.9551813841128896  0.003977567966267244  1.0000
  C   C16       1.0  0.14896580344078836  0.5792073074528039  0.18333529212207633  1.0000
  C   C17       1.0  0.24240736570146473  0.6370584229604741  0.17794677685826343  1.0000
  C   C18       1.0  0.2888226058325103  0.6686906947832609  0.05792882363450703  1.0000
  C   C19       1.0  0.24216560074460314  0.6369054254419289  0.9427096295714747  1.0000
  C   C20       1.0  0.1487816949376024  0.5790901251367289  0.9460987057753121  1.0000
  C   C21       1.0  0.10257618705981719  0.551111184453936  0.06688369963879115  1.0000
  C   C22       1.0  0.39049213857940873  0.72590499292624  0.05354660842450842  1.0000
  F   F1        1.0  0.4067705257129768  0.8101531473361206  0.1563064599227355  1.0000
  F   F2        1.0  0.4550880962163668  0.610883448660815  0.06156542291175727  1.0000
  F   F3        1.0  0.406505360690127  0.810133559811901  0.9386631753540122  1.0000
  H   H14       1.0  0.9733026511347592  0.46762349209078263  0.4009135196680571  1.0000
  H   H15       1.0  0.2793000837947801  0.6573514715883718  0.2673005055191129  1.0000
  H   H16       1.0  0.2788925161549727  0.6570896479462165  0.8502870139982125  1.0000
  H   H17       1.0  0.030555518656609992  0.5065256728200895  0.07023194460636484  1.0000
  H   H18       1.0  0.11352699751423967  0.5544949872336888  0.6201158468991519  1.0000
  Zn  Zn1       1.0  0.04305595155788833  0.5791449178039917  0.5647547372690362  1.0000
  Zn  Zn2       1.0  0.2546822745021833  0.5791517963963925  0.5646786544139442  1.0000
  C   C23       1.0  0.1488545997604238  0.5733649352033807  0.8019286455343023  1.0000
  C   C24       1.0  0.14888592446253557  0.584933599357206  0.3275048700749057  1.0000
  C   C25       1.0  0.14702310237098537  0.8426407559779993  0.5591488411846652  1.0000
  C   C26       1.0  0.1507173617713713  0.31565604526547664  0.5702847462754319  1.0000
  O   O2        1.0  0.22917024712185843  0.5868517116792396  0.37586063377712  1.0000
  O   O3        1.0  0.22918976723495033  0.5714509552801507  0.7535147644694351  1.0000
  O   O4        1.0  0.2277097269726627  0.7888945857705056  0.5574683529026478  1.0000
  O   O5        1.0  0.23065021512158618  0.3694080915217943  0.5719069479765513  1.0000
  O   O6        1.0  0.06708793872079791  0.7888886226778148  0.5575264437255587  1.0000
  O   O7        1.0  0.06856796684600086  0.571446725503794  0.7535727834605868  1.0000
  O   O8        1.0  0.0685484475264775  0.5868474318690111  0.37591709139016416  1.0000
  O   O9        1.0  0.07002841557107775  0.3694038013778804  0.5719635029760812  1.0000
