data_image0
_chemical_formula_structural       NC9NC3OH6C7OC3NC3H10C7OC6OCH10Zn2C4O8
_chemical_formula_sum              "N3 C43 O12 H26 Zn2"
_cell_length_a       15.78231758774541
_cell_length_b       10.298746005989749
_cell_length_c       10.299362532796527
_cell_angle_alpha    85.58216748152913
_cell_angle_beta     90.09919445181322
_cell_angle_gamma    89.64076015714046

_space_group_name_H-M_alt    "P 1"
_space_group_IT_number       1

loop_
  _space_group_symop_operation_xyz
  'x, y, z'

loop_
  _atom_site_type_symbol
  _atom_site_label
  _atom_site_symmetry_multiplicity
  _atom_site_fract_x
  _atom_site_fract_y
  _atom_site_fract_z
  _atom_site_occupancy
  N   N1        1.0  0.7977603290030574  0.4129433378199696  0.5700102704080521  1.0000
  C   C1        1.0  0.7492247205656931  0.3308803400804581  0.5940848158701157  1.0000
  C   C2        1.0  0.6889659607481274  0.22902021278129972  0.623967528997706  1.0000
  C   C3        1.0  0.7086229676934843  0.10106745343668357  0.6614256230209836  1.0000
  C   C4        1.0  0.6318896963548906  0.03905656086438558  0.6796538323701609  1.0000
  C   C5        1.0  0.5701131809901093  0.13375625981864703  0.6519718357390671  1.0000
  C   C6        1.0  0.4770214508198391  0.11624776168199057  0.6571815794727156  1.0000
  C   C7        1.0  0.42328101032442345  0.2236016883767733  0.6256355358049961  1.0000
  C   C8        1.0  0.3350739118779636  0.20924514191179933  0.6299145614186317  1.0000
  C   C9        1.0  0.28063710816724124  0.3197225842011222  0.5974424228697233  1.0000
  N   N2        1.0  0.23688281190419178  0.4085321938685833  0.5713377254189675  1.0000
  C   C10       1.0  0.29992596012213857  0.08737488813127235  0.6657886144384129  1.0000
  C   C11       1.0  0.352735478544728  0.9802429140320145  0.6972737946153253  1.0000
  C   C12       1.0  0.44075689768681153  0.9942050627370946  0.6931110488123904  1.0000
  O   O1        1.0  0.606576489771808  0.24598768216345146  0.6190676130100128  1.0000
  H   H1        1.0  0.7710814835594808  0.0579171767595108  0.6740069867590639  1.0000
  H   H2        1.0  0.6231531064625724  0.9370943534879781  0.7095184293030767  1.0000
  H   H3        1.0  0.4498905858658704  0.31843835370397144  0.5977144400000063  1.0000
  H   H4        1.0  0.23180914997876068  0.07521563866705792  0.6694106042004939  1.0000
  H   H5        1.0  0.32539561545518453  0.8860546015001389  0.7250044309117569  1.0000
  H   H6        1.0  0.4798396484515004  0.9093489972511434  0.7180577786519518  1.0000
  C   C13       1.0  0.017285120253381248  0.029336053034010545  0.5706567100637117  1.0000
  C   C14       1.0  0.056900897188067096  0.037407436067308675  0.44827384561230255  1.0000
  C   C15       1.0  0.0760414340966597  0.9243740910206224  0.3856994648364154  1.0000
  C   C16       1.0  0.05690152395513068  0.8021708145317374  0.4482247110677873  1.0000
  C   C17       1.0  0.017366093947364984  0.7921294456272429  0.5707025088390438  1.0000
  C   C18       1.0  0.9976047740090803  0.9062770420837216  0.6309862618033728  1.0000
  C   C19       1.0  0.11859561295609827  0.9326988239255758  0.2570143050230289  1.0000
  O   O2        1.0  0.17032588561914652  0.8441936183727985  0.23195876568573803  1.0000
  C   C20       1.0  0.1024668589218311  0.041368342520040624  0.1567611977122827  1.0000
  C   C21       1.0  0.022232791284785267  0.10156276598808756  0.1444113701480576  1.0000
  C   C22       1.0  0.007368534853756209  0.20335424731726404  0.048460926003446536  1.0000
  N   N3        1.0  0.925778256000065  0.26440476094528176  0.03701036273955104  1.0000
  C   C23       1.0  0.07279052410172704  0.24455794748059392  0.9635256772974867  1.0000
  C   C24       1.0  0.15225084217518547  0.18420597356555746  0.9740171196009015  1.0000
  C   C25       1.0  0.1670491387759638  0.08283953732657645  0.0696631605703113  1.0000
  H   H7        1.0  0.9436059792256621  0.22136874352981195  0.8027664129199963  1.0000
  H   H8        1.0  0.07374283969392809  0.13174113352728845  0.4021035916199382  1.0000
  H   H9        1.0  0.07217471660818298  0.7148114491284432  0.40057365287152336  1.0000
  H   H10       1.0  0.9670723396149866  0.899303344959481  0.7253231953504942  1.0000
  H   H11       1.0  0.9429827277963506  0.5658350865363714  0.8023215638312546  1.0000
  H   H12       1.0  0.9709317105064009  0.06869326646875384  0.2082180304508163  1.0000
  H   H13       1.0  0.8765582564060858  0.23446409729819417  0.09981186628755824  1.0000
  H   H14       1.0  0.06209944102017802  0.32299446483659977  0.8890072501962932  1.0000
  H   H15       1.0  0.20251334990034608  0.2160495966707259  0.9078750420866201  1.0000
  H   H16       1.0  0.22919349036100645  0.03757531104548994  0.07637848228697441  1.0000
  C   C26       1.0  0.017259473881005447  0.4106128592941771  0.18931252996738523  1.0000
  C   C27       1.0  0.9368220187748064  0.3527353203991017  0.19235352354273605  1.0000
  C   C28       1.0  0.8958865006334739  0.3248706258332963  0.07671477751428091  1.0000
  C   C29       1.0  0.937060648885061  0.3528964948801783  0.9570999548179993  1.0000
  C   C30       1.0  0.017391765010407845  0.4108526050218475  0.9520467193590466  1.0000
  C   C31       1.0  0.056958102975157576  0.43963272787554275  0.06869022651887668  1.0000
  C   C32       1.0  0.8113773112000345  0.26241654606082787  0.08225834188634829  1.0000
  O   O3        1.0  0.7940575675884691  0.1833772640528548  0.178097816018985  1.0000
  C   C33       1.0  0.746519852165393  0.28962151703571437  0.9791490585822653  1.0000
  C   C34       1.0  0.7400170924151073  0.4130697802333161  0.9112833738867376  1.0000
  C   C35       1.0  0.6780002697362197  0.43787440090912616  0.8154017586610739  1.0000
  C   C36       1.0  0.6209931641161874  0.34077453528983703  0.7861747854109926  1.0000
  C   C37       1.0  0.6266048628938985  0.21752879388757362  0.8549560040789421  1.0000
  C   C38       1.0  0.6886140789211066  0.19259703979836162  0.950909993719999  1.0000
  O   O4        1.0  0.5600004360416377  0.37054926870815313  0.6890076018091307  1.0000
  C   C39       1.0  0.49821188303506636  0.28140114841564623  0.6494428378457338  1.0000
  H   H17       1.0  0.16918948825681046  0.5193348341447781  0.39088270005054265  1.0000
  H   H18       1.0  0.9054474191630311  0.3303076365809694  0.2847914022395195  1.0000
  H   H19       1.0  0.9067684496473961  0.32811860696951434  0.8679528122073363  1.0000
  H   H20       1.0  0.11892792139402059  0.48433746281886075  0.06552480724606724  1.0000
  H   H21       1.0  0.7822588699108167  0.49090275511803205  0.9332399493497654  1.0000
  H   H22       1.0  0.6739732687893071  0.5333822737497929  0.7638316530534386  1.0000
  H   H23       1.0  0.5833898641587413  0.14039144147458002  0.835093303343159  1.0000
  H   H24       1.0  0.6918178278078658  0.09691555314677358  0.0023644076687550125  1.0000
  H   H25       1.0  0.45683335122929086  0.2496010896507721  0.7328655015731047  1.0000
  H   H26       1.0  0.5297885308175133  0.1957568174922999  0.6108773666935039  1.0000
  Zn  Zn1       1.0  0.9244815892867367  0.41166691004224054  0.5704008384718291  1.0000
  Zn  Zn2       1.0  0.11016152384358041  0.40979802460243775  0.5709577729867652  1.0000
  C   C40       1.0  0.017364308009781393  0.4056331949186116  0.8078732955441614  1.0000
  C   C41       1.0  0.017280832935740332  0.41583335811831845  0.3334854495604034  1.0000
  C   C42       1.0  0.01734553907757586  0.6479436575411132  0.565518703328904  1.0000
  C   C43       1.0  0.01729953835469833  0.1735213357186782  0.5758401107301971  1.0000
  O   O5        1.0  0.08775256811325377  0.416870506700765  0.38208255181732387  1.0000
  O   O6        1.0  0.08781934665082214  0.4031766256062368  0.7596985197944006  1.0000
  O   O7        1.0  0.08780324083881741  0.5988453985932252  0.5639954691135491  1.0000
  O   O8        1.0  0.0877686105493742  0.221201743611912  0.5777855049344882  1.0000
  O   O9        1.0  0.9468744392174927  0.6002631916719365  0.5635731063272207  1.0000
  O   O10       1.0  0.9468905451792948  0.4045959791012579  0.7592760878566502  1.0000
  O   O11       1.0  0.9468237664224883  0.41828981444455393  0.3816585584838237  1.0000
  O   O12       1.0  0.946839808871043  0.22262104209673692  0.5773616089677898  1.0000
