data_image0
_chemical_formula_structural       NC5NC3BrH3C9H10C6SCH7Zn2C4O8
_chemical_formula_sum              "N2 C28 Br1 H20 S1 Zn2 O8"
_cell_length_a       13.839083392302014
_cell_length_b       10.297183801781404
_cell_length_c       10.302812801239591
_cell_angle_alpha    85.53397989939683
_cell_angle_beta     90.00087154347639
_cell_angle_gamma    90.02359494799444

_space_group_name_H-M_alt    "P 1"
_space_group_IT_number       1

loop_
  _space_group_symop_operation_xyz
  'x, y, z'

loop_
  _atom_site_type_symbol
  _atom_site_label
  _atom_site_symmetry_multiplicity
  _atom_site_fract_x
  _atom_site_fract_y
  _atom_site_fract_z
  _atom_site_occupancy
  N   N1        1.0  0.9098576583756064  0.42223956334227847  0.5672721437359227  1.0000
  C   C1        1.0  0.8378567457903062  0.3649057993074511  0.569517925290913  1.0000
  C   C2        1.0  0.7481494790718327  0.2935627737449231  0.5723123119791046  1.0000
  C   C3        1.0  0.6605909750517833  0.36221025453096933  0.5696236801737267  1.0000
  C   C4        1.0  0.5725462706573631  0.29488952848330463  0.5722602945735655  1.0000
  C   C5        1.0  0.48278528317854824  0.3656553480442639  0.5694885515138497  1.0000
  N   N2        1.0  0.41062909691231836  0.42254551918730715  0.567260109908521  1.0000
  C   C6        1.0  0.5719942455615562  0.15864069320695084  0.577596575036901  1.0000
  C   C7        1.0  0.6591077069203536  0.08988396411251752  0.5802894033778676  1.0000
  C   C8        1.0  0.7473484579971537  0.15656134575112235  0.5776780041799803  1.0000
  Br  Br1       1.0  0.8647542477091198  0.057382512368309824  0.5815624921682683  1.0000
  H   H1        1.0  0.6609636573185534  0.4677915706367367  0.5654883348323071  1.0000
  H   H2        1.0  0.5043012984928256  0.10562122426924447  0.5796728783425799  1.0000
  H   H3        1.0  0.6579718210849866  0.9845271545044415  0.5844156158868685  1.0000
  C   C9        1.0  0.16025138274582607  0.04091697345460421  0.5674500955231676  1.0000
  C   C10       1.0  0.1574344968918775  0.050775237446216044  0.43083254374052604  1.0000
  C   C11       1.0  0.1559911003890424  0.9392094268463812  0.3608393768476781  1.0000
  C   C12       1.0  0.1574231769359904  0.8156041377056744  0.4303030343489807  1.0000
  C   C13       1.0  0.16024463355612828  0.8038580959164088  0.5670933873465044  1.0000
  C   C14       1.0  0.1616394012836455  0.9169906303414243  0.634773981794531  1.0000
  C   C15       1.0  0.15294417208409072  0.9593040301057276  0.21307784782943218  1.0000
  C   C16       1.0  0.09636401878508183  0.8605525504609447  0.1408076864171821  1.0000
  C   C17       1.0  0.20644865202948592  0.8609280160669001  0.13668076036538856  1.0000
  H   H4        1.0  0.1613459943740383  0.36465672772708757  0.6200932200359113  1.0000
  H   H5        1.0  0.15634722645193055  0.14600343670896712  0.378090631342158  1.0000
  H   H6        1.0  0.1563637555471291  0.7280037857739563  0.37902575470936073  1.0000
  H   H7        1.0  0.16381220355709283  0.9086573294940425  0.7401772918771352  1.0000
  H   H8        1.0  0.16556073480752986  0.5744566726183058  0.8254518474216422  1.0000
  H   H9        1.0  0.15196572288490962  0.06001899730461192  0.16558469481647742  1.0000
  H   H10       1.0  0.06411997637368594  0.7768953423096919  0.19989128630202171  1.0000
  H   H11       1.0  0.06227422985208774  0.901404696168454  0.048953390967001686  1.0000
  H   H12       1.0  0.24107511274730897  0.7774996828224173  0.19325815203711527  1.0000
  H   H13       1.0  0.23669848661641502  0.901997237569896  0.04241326038031313  1.0000
  C   C18       1.0  0.16024802865688414  0.42238754032348136  0.186023294525397  1.0000
  C   C19       1.0  0.1276596786225479  0.5519141846178492  0.17476623174012706  1.0000
  C   C20       1.0  0.11119563215855166  0.6161707999496335  0.052189583018472874  1.0000
  C   C21       1.0  0.12765959151165895  0.5519140481993008  0.9396150621167219  1.0000
  C   C22       1.0  0.16024796598089927  0.42238753153080927  0.9485201981605319  1.0000
  C   C23       1.0  0.17635312407856807  0.3582458108378668  0.07226395350448134  1.0000
  S   S1        1.0  0.06975764714700028  0.7817565461385887  0.03930182555017381  1.0000
  C   C24       1.0  0.9426556844056453  0.7362919708282788  0.042838229532793815  1.0000
  H   H14       1.0  0.17249309639954324  0.3735585510683448  0.5175799099546652  1.0000
  H   H15       1.0  0.11471426654172846  0.603362536561895  0.2608615369805161  1.0000
  H   H16       1.0  0.11471407308584713  0.603362349314601  0.8455112240905454  1.0000
  H   H17       1.0  0.20147244084971308  0.25832754636480715  0.0800406105344984  1.0000
  H   H18       1.0  0.9255217735714965  0.6784914939115592  0.959219335815471  1.0000
  H   H19       1.0  0.9255221874098493  0.6784928070103442  0.13545402722526623  1.0000
  H   H20       1.0  0.8979335119439708  0.825928814481864  0.03586087864241594  1.0000
  Zn  Zn1       1.0  0.054369481261095524  0.4223243726743391  0.56727617574412  1.0000
  Zn  Zn2       1.0  0.2661172662614626  0.42245006230983556  0.5672667374161287  1.0000
  C   C25       1.0  0.16024587051499273  0.4172124013493132  0.8043943892021433  1.0000
  C   C26       1.0  0.16024318927224737  0.42756367408515494  0.33014865051494785  1.0000
  C   C27       1.0  0.1602409223453598  0.6596459773133787  0.5619872973947324  1.0000
  C   C28       1.0  0.16024806520099766  0.18512853733933232  0.5725558122719987  1.0000
  O   O1        1.0  0.24059874605559828  0.42934286309611713  0.37851485743966595  1.0000
  O   O2        1.0  0.24060198304540914  0.4155276278669908  0.7560206455350678  1.0000
  O   O3        1.0  0.24059690408251533  0.6112958058059764  0.5602752032469975  1.0000
  O   O4        1.0  0.24060375276324164  0.23357469440706446  0.5742602023826999  1.0000
  O   O5        1.0  0.07988292250018958  0.6111997405356329  0.5602827107739403  1.0000
  O   O6        1.0  0.07988800144483932  0.41543312333692733  0.7560280831087611  1.0000
  O   O7        1.0  0.07988476451981419  0.4292483132975032  0.37852073412699877  1.0000
  O   O8        1.0  0.07988977122358154  0.2334801353170404  0.57426617641146  1.0000
