data_image0
_chemical_formula_structural       NC5NC3F3CH3C7NH5C6NH7Zn2C4O8
_chemical_formula_sum              "N4 C26 F3 H15 Zn2 O8"
_cell_length_a       13.85151926108384
_cell_length_b       9.275154477615127
_cell_length_c       9.274774538082513
_cell_angle_alpha    85.29330631285735
_cell_angle_beta     90.34967317275357
_cell_angle_gamma    89.43371178103573

_space_group_name_H-M_alt    "P 1"
_space_group_IT_number       1

loop_
  _space_group_symop_operation_xyz
  'x, y, z'

loop_
  _atom_site_type_symbol
  _atom_site_label
  _atom_site_symmetry_multiplicity
  _atom_site_fract_x
  _atom_site_fract_y
  _atom_site_fract_z
  _atom_site_occupancy
  N   N1        1.0  0.8920685892217229  0.5916842456164545  0.41436772371606456  1.0000
  C   C1        1.0  0.8200581543634294  0.5820628099977454  0.4768683658733131  1.0000
  C   C2        1.0  0.7304715297370882  0.5700924214272753  0.5546281060937523  1.0000
  C   C3        1.0  0.6425712837352417  0.5799690618672922  0.47905529453489737  1.0000
  C   C4        1.0  0.5554195402367585  0.5700924084601497  0.554628085960579  1.0000
  C   C5        1.0  0.46503890252781543  0.5820628253233835  0.4768684601103821  1.0000
  N   N2        1.0  0.392390404296012  0.5916842068200079  0.4143678291368337  1.0000
  C   C6        1.0  0.5561660970335142  0.5493398969810799  0.7059459709289189  1.0000
  C   C7        1.0  0.6441017059419031  0.5362633764473883  0.7827696447562282  1.0000
  C   C8        1.0  0.6448808698040163  0.5192706834830115  0.9459117364965447  1.0000
  F   F1        1.0  0.7265231306096196  0.44402803093628035  0.9972744470579491  1.0000
  F   F2        1.0  0.5646543165628054  0.44402799948067023  0.9972745463446009  1.0000
  F   F3        1.0  0.6441990562999678  0.6545952380599446  0.9982283521750249  1.0000
  C   C9        1.0  0.7312364245844892  0.5493398015842299  0.7059459901896985  1.0000
  H   H1        1.0  0.6419851313355106  0.5961965464133272  0.3619002570594614  1.0000
  H   H2        1.0  0.48831620427825423  0.5436611831894442  0.7636421711605387  1.0000
  H   H3        1.0  0.7996329581611359  0.5436611026712308  0.7636421297524045  1.0000
  C   C10       1.0  0.14502085896172373  0.16830947656641906  0.41269773155208234  1.0000
  C   C11       1.0  0.11799404342577002  0.2525957002215566  0.2854530599512464  1.0000
  C   C12       1.0  0.08314259861006736  0.1876057674657128  0.16494872722806297  1.0000
  C   C13       1.0  0.07474646647168348  0.03743894421572013  0.17026986627321117  1.0000
  C   C14       1.0  0.10265602865231127  0.9519702818640816  0.29461409709268627  1.0000
  C   C15       1.0  0.13944749043508686  0.015047824865896519  0.416050251964023  1.0000
  C   C16       1.0  0.05482503321686738  0.2754871473540432  0.03617042540822602  1.0000
  N   N3        1.0  0.03206555410518663  0.3461275837349065  0.9326656570105163  1.0000
  H   H4        1.0  0.1652083435859919  0.24189827709738407  0.7669449375112609  1.0000
  H   H5        1.0  0.12191895631660438  0.3695923583182812  0.281170978186273  1.0000
  H   H6        1.0  0.04744653165983604  0.986118200599293  0.07765471824190584  1.0000
  H   H7        1.0  0.09758605021435818  0.8355037909302776  0.2944870891784921  1.0000
  H   H8        1.0  0.15713221734812155  0.7142123795827314  0.6534059568890189  1.0000
  C   C17       1.0  0.14047732561341422  0.5953660891452924  0.9905722547352496  1.0000
  C   C18       1.0  0.20832461087748966  0.6804455715479574  0.05764562310528332  1.0000
  C   C19       1.0  0.280581200678048  0.7536488903266746  0.9771705445231698  1.0000
  C   C20       1.0  0.28557743630230076  0.7421047301630612  0.8281474231946948  1.0000
  C   C21       1.0  0.21801897950926286  0.6602012442193548  0.7593840669499317  1.0000
  C   C22       1.0  0.1439910100410617  0.5879911505824054  0.8381756819669048  1.0000
  N   N4        1.0  0.34953810685188347  0.8385277960243431  0.047248363994911724  1.0000
  H   H9        1.0  0.998026804108538  0.3135323293623297  0.11537669811963915  1.0000
  H   H10       1.0  0.206541813535679  0.687283324266345  0.17369282488355497  1.0000
  H   H11       1.0  0.34137032035061265  0.7978075732598651  0.7648372002641048  1.0000
  H   H12       1.0  0.22235034009371168  0.6561908903324865  0.6431951396662785  1.0000
  H   H13       1.0  0.045051722519624526  0.4025552598412132  0.5713596995114529  1.0000
  H   H14       1.0  0.34667514262534116  0.8475688617030102  0.1586540827476135  1.0000
  H   H15       1.0  0.4039450121732972  0.8930968854771062  0.9882223367427456  1.0000
  Zn  Zn1       1.0  0.03645071750139861  0.5916803131670947  0.41437605730686133  1.0000
  Zn  Zn2       1.0  0.2480083847435062  0.5916762773524838  0.41437121603003524  1.0000
  C   C23       1.0  0.1433625049807049  0.5836416707812278  0.6779377466127463  1.0000
  C   C24       1.0  0.1410988960808912  0.5997167375667587  0.15080967552256896  1.0000
  C   C25       1.0  0.1404721617968394  0.8550462727473497  0.4096655343191178  1.0000
  C   C26       1.0  0.1439891787952517  0.3283104027708079  0.4190819579021592  1.0000
  O   O1        1.0  0.22159257438469873  0.6011690335568902  0.20458495558331413  1.0000
  O   O2        1.0  0.22343620643924994  0.5821852276820951  0.6241583723868542  1.0000
  O   O3        1.0  0.2211011417050428  0.801347863113234  0.4075266688494281  1.0000
  O   O4        1.0  0.2239275664121454  0.3820064093821338  0.4212165509542196  1.0000
  O   O5        1.0  0.06053146363846884  0.8013501811404583  0.4075307223767437  1.0000
  O   O6        1.0  0.06286651664788967  0.5821892785421596  0.6241623558222753  1.0000
  O   O7        1.0  0.06102287779535854  0.6011730492734393  0.20458720369075148  1.0000
  O   O8        1.0  0.06335787033527507  0.38201041384531265  0.421218907222245  1.0000
