data_image0
_chemical_formula_structural       NC5NC3BrH3C6ClH5C6BrH4Zn2C4O8
_chemical_formula_sum              "N2 C24 Br2 H12 Cl1 Zn2 O8"
_cell_length_a       13.839083392302014
_cell_length_b       10.30297070629231
_cell_length_c       9.27656775626242
_cell_angle_alpha    86.12016662879066
_cell_angle_beta     90.18696188566506
_cell_angle_gamma    90.02428142920579

_space_group_name_H-M_alt    "P 1"
_space_group_IT_number       1

loop_
  _space_group_symop_operation_xyz
  'x, y, z'

loop_
  _atom_site_type_symbol
  _atom_site_label
  _atom_site_symmetry_multiplicity
  _atom_site_fract_x
  _atom_site_fract_y
  _atom_site_fract_z
  _atom_site_occupancy
  N   N1        1.0  0.9064056886294362  0.4073725993330061  0.4106320402504329  1.0000
  C   C1        1.0  0.8344096337169398  0.35009483745821063  0.41309475926007844  1.0000
  C   C2        1.0  0.7447084112793202  0.27882149655519495  0.4161590755450437  1.0000
  C   C3        1.0  0.6571440917719131  0.3474019272806556  0.4132107320731102  1.0000
  C   C4        1.0  0.5691050903378021  0.2801469548834892  0.41610203273900526  1.0000
  C   C5        1.0  0.4793381075655672  0.35084365392065164  0.413062547860398  1.0000
  N   N2        1.0  0.40717710112405364  0.4076782558442515  0.4106188433273714  1.0000
  C   C6        1.0  0.5685646075677485  0.14403119783956098  0.42195377757528285  1.0000
  C   C7        1.0  0.655683893469887  0.07534162470670201  0.42490672186243583  1.0000
  C   C8        1.0  0.7439189961312863  0.14195388124600192  0.4220430723317228  1.0000
  Br  Br1       1.0  0.8613331879756776  0.04287191952034175  0.4263027881273356  1.0000
  H   H1        1.0  0.6575078292785539  0.4528801172612179  0.40867592573888345  1.0000
  H   H2        1.0  0.5008761514622417  0.09106351221200248  0.42423064067974714  1.0000
  H   H3        1.0  0.6545569325532903  0.9700877186151373  0.4294315086643876  1.0000
  C   C9        1.0  0.1567960150823784  0.02627802405612511  0.410631670140583  1.0000
  C   C10       1.0  0.25663371579646  0.023440651050438133  0.43838219930478806  1.0000
  C   C11       1.0  0.3061705179609664  0.905075977497349  0.45215117048317377  1.0000
  C   C12       1.0  0.256633714877321  0.7883326817823415  0.4383821315397151  1.0000
  C   C13       1.0  0.1567960255743568  0.7887629666026417  0.4106317526232026  1.0000
  C   C14       1.0  0.10736383885917133  0.9083294914538851  0.3968917277066335  1.0000
  Cl  Cl1       1.0  0.43089159286876016  0.9030349386574237  0.4868180937840172  1.0000
  H   H4        1.0  0.11918890005963623  0.35464992398160117  0.40017772514027183  1.0000
  H   H5        1.0  0.29634159544213534  0.11283742226761384  0.4494191354669683  1.0000
  H   H6        1.0  0.2963415570037884  0.6976362285030697  0.44941903194558774  1.0000
  H   H7        1.0  0.030365974237880573  0.9095894320962792  0.37548964105130933  1.0000
  H   H8        1.0  0.11918889594037553  0.4616219597020757  0.4001779971823849  1.0000
  C   C15       1.0  0.15587369164603326  0.4037889627437645  0.9875049573931852  1.0000
  C   C16       1.0  0.07000651400222013  0.4349908465816927  0.05811805267439695  1.0000
  C   C17       1.0  0.9884332190562984  0.4768894466574555  0.979419207883249  1.0000
  C   C18       1.0  0.991194907251347  0.48843486201826214  0.8289232920253045  1.0000
  C   C19       1.0  0.07516773050299631  0.45582937329363094  0.7565831841226127  1.0000
  C   C20       1.0  0.15771840152251282  0.4112520342639732  0.8337584320116536  1.0000
  Br  Br2       1.0  0.8795470259162067  0.5468237588442248  0.7216760015009172  1.0000
  H   H9        1.0  0.2888036239723746  0.2859491876713329  0.2783356479613073  1.0000
  H   H10       1.0  0.9232884791961723  0.5016026284971227  0.03573830821025715  1.0000
  H   H11       1.0  0.07501565287952427  0.46246100951327523  0.6395327252185425  1.0000
  H   H12       1.0  0.316708868723149  0.39794306432448345  0.5543595208204204  1.0000
  Zn  Zn1       1.0  0.05091752212118238  0.40745739780392287  0.41063655916262  1.0000
  Zn  Zn2       1.0  0.2626652855489817  0.4075829204775498  0.4106261493013268  1.0000
  C   C21       1.0  0.1573675284852265  0.40466928713028316  0.67379838919213  1.0000
  C   C22       1.0  0.15621759177227346  0.4103726718667494  0.14746446058153784  1.0000
  C   C23       1.0  0.15677855032222232  0.6445864126287246  0.40488987018375666  1.0000
  C   C24       1.0  0.156806497847956  0.17045398719734495  0.41637305641328304  1.0000
  O   O1        1.0  0.23669018048408286  0.41262419605503364  0.20114438061132067  1.0000
  O   O2        1.0  0.23760659180120114  0.4025120486785334  0.6201101535383207  1.0000
  O   O3        1.0  0.23712990449869495  0.5962481742553849  0.40296462191998206  1.0000
  O   O4        1.0  0.23716679529592133  0.2188880787698477  0.4182898041965497  1.0000
  O   O5        1.0  0.076415940115107  0.596152239470137  0.4029729042633703  1.0000
  O   O6        1.0  0.07689262724579837  0.4024176730227609  0.6201183590543102  1.0000
  O   O7        1.0  0.07597621221670425  0.4125297598801816  0.20115085376177255  1.0000
  O   O8        1.0  0.07645282726007441  0.21879363426184192  0.41829638537608504  1.0000
