data_image0
_chemical_formula_structural       NC9NC3OH6C6OCH7C7OH5Zn2C4O8
_chemical_formula_sum              "N2 C30 O11 H18 Zn2"
_cell_length_a       15.78231758774541
_cell_length_b       9.273888216677433
_cell_length_c       9.274081674992354
_cell_angle_alpha    86.26755085646467
_cell_angle_beta     89.75780300142802
_cell_angle_gamma    89.05820199757645

_space_group_name_H-M_alt    "P 1"
_space_group_IT_number       1

loop_
  _space_group_symop_operation_xyz
  'x, y, z'

loop_
  _atom_site_type_symbol
  _atom_site_label
  _atom_site_symmetry_multiplicity
  _atom_site_fract_x
  _atom_site_fract_y
  _atom_site_fract_z
  _atom_site_occupancy
  N   N1        1.0  0.7940654035023869  0.5551754672813324  0.4182145528271528  1.0000
  C   C1        1.0  0.7459791005791345  0.4642851712324619  0.444623834310336  1.0000
  C   C2        1.0  0.6862780367231524  0.35146822444023673  0.4774045608526827  1.0000
  C   C3        1.0  0.7066359158439004  0.20975116861023713  0.5184942999158852  1.0000
  C   C4        1.0  0.6302420177661827  0.14107027784578663  0.5384907394945984  1.0000
  C   C5        1.0  0.5679466124167096  0.2459575294659784  0.5081254464347829  1.0000
  C   C6        1.0  0.47495045169914285  0.22656639320468813  0.5138413754185281  1.0000
  C   C7        1.0  0.4206224414557648  0.3454675968014165  0.47923534256371186  1.0000
  C   C8        1.0  0.33249367915837535  0.3295674012412145  0.483930214879815  1.0000
  C   C9        1.0  0.27745224288692466  0.4519280149454115  0.4483081489206005  1.0000
  N   N2        1.0  0.2332119051797121  0.5502901488804455  0.41967117473208654  1.0000
  C   C10       1.0  0.29801249972457966  0.1945890545499691  0.5232848814506925  1.0000
  C   C11       1.0  0.35140835576305024  0.07593371922321324  0.5578242032009206  1.0000
  C   C12       1.0  0.43935359583989025  0.09139709824523747  0.5532568948951835  1.0000
  O   O1        1.0  0.6037953571590581  0.37026158642663576  0.47203045827430423  1.0000
  H   H1        1.0  0.769330993413173  0.1619585871609555  0.5322947964627214  1.0000
  H   H2        1.0  0.6220638740051373  0.028139808812746917  0.5712509721525454  1.0000
  H   H3        1.0  0.44671316870165756  0.4505046371509236  0.44860519336771804  1.0000
  H   H4        1.0  0.22996204467984513  0.18112239405760108  0.527258838496355  1.0000
  H   H5        1.0  0.32458379216626165  0.9716147708100541  0.5882454189449327  1.0000
  H   H6        1.0  0.47890073444054426  0.9974137986855102  0.580623626575629  1.0000
  C   C13       1.0  0.016135767397206905  0.12922977088884569  0.41747847819540485  1.0000
  C   C14       1.0  0.9967902343045445  0.2115579523175748  0.28866859579202364  1.0000
  C   C15       1.0  0.9702165450908304  0.14602962667834118  0.16548971743758423  1.0000
  C   C16       1.0  0.9628332682995019  0.99517724749643  0.1706573177113515  1.0000
  C   C17       1.0  0.9830750265249986  0.9116192299462065  0.29669753704757196  1.0000
  C   C18       1.0  0.011149629963149497  0.9762247887578105  0.42041968798049645  1.0000
  O   O2        1.0  0.9513700400990156  0.23455720398522928  0.04091915783865985  1.0000
  C   C19       1.0  0.9235442236456346  0.1827574816402295  0.9081790263106776  1.0000
  H   H7        1.0  0.021820083830392346  0.20901898567923993  0.7722077990405716  1.0000
  H   H8        1.0  0.9422380723250967  0.9411368504202934  0.07736653220166767  1.0000
  H   H9        1.0  0.978673484184903  0.7951954900679818  0.29620297440700183  1.0000
  H   H10       1.0  0.018532196706899203  0.6793367746472087  0.6583566174785325  1.0000
  H   H11       1.0  0.8626809086631709  0.12545890003018875  0.9245891885805552  1.0000
  H   H12       1.0  0.9723407224381613  0.10922033983519787  0.8651200148411595  1.0000
  H   H13       1.0  0.913512092869074  0.27584278957398456  0.8284550565909212  1.0000
  C   C20       1.0  0.015095023673233671  0.5489308562072563  0.9956709677432843  1.0000
  C   C21       1.0  0.08354445974600483  0.6109297831827252  0.06464325983650587  1.0000
  C   C22       1.0  0.14713264033478735  0.6836213572983275  0.9846275513528538  1.0000
  C   C23       1.0  0.14225189449205766  0.6947053000972838  0.8335271792910782  1.0000
  C   C24       1.0  0.07558295383761265  0.6318643228204075  0.7633550941256382  1.0000
  C   C25       1.0  0.012190397407972899  0.5565236926240674  0.8422271510557882  1.0000
  C   C26       1.0  0.2175409816571724  0.7484691859356196  0.06053521630982672  1.0000
  O   O3        1.0  0.27546110056003625  0.8150112613598398  0.991622237762916  1.0000
  H   H14       1.0  0.8148759599722023  0.4574814082029781  0.10604850917722408  1.0000
  H   H15       1.0  0.19043593920704183  0.7508065842480842  0.7692769301231368  1.0000
  H   H16       1.0  0.07475312056691052  0.6393243742894525  0.6463046027308432  1.0000
  H   H17       1.0  0.8787625261754249  0.48901315824176633  0.5664592845929679  1.0000
  H   H18       1.0  0.2200652830163322  0.7392733534039639  0.17741876203141715  1.0000
  Zn  Zn1       1.0  0.9207935882959176  0.5537618922810488  0.41864320600192095  1.0000
  Zn  Zn2       1.0  0.10648372075591123  0.5516920590494983  0.4192542636462475  1.0000
  C   C27       1.0  0.012771359728768849  0.5493432411141657  0.68218998307024  1.0000
  C   C28       1.0  0.01450796585610491  0.5561125085391829  0.1557076410433773  1.0000
  C   C29       1.0  0.01210747755007667  0.8160732327424556  0.41411983956235177  1.0000
  C   C30       1.0  0.01517179460810092  0.28938078561958136  0.42377785517333444  1.0000
  O   O4        1.0  0.08477941846433618  0.5577309540426811  0.20964928189938137  1.0000
  O   O5        1.0  0.08343442890880688  0.5461527483955375  0.6287117021208635  1.0000
  O   O6        1.0  0.08289738056285986  0.7615406139279912  0.4122431666786226  1.0000
  O   O7        1.0  0.08531640375690606  0.3423430985638005  0.426117709093619  1.0000
  O   O8        1.0  0.9419608419280107  0.763110853474581  0.411779760338449  1.0000
  O   O9        1.0  0.9424978803337415  0.5477247199412734  0.6282482249425203  1.0000
  O   O10       1.0  0.9438428761875478  0.5593028597885649  0.20918407156137553  1.0000
  O   O11       1.0  0.9443798611665827  0.3439149949639455  0.4256526067875166  1.0000
