data_image0
_chemical_formula_structural       NC5OC5NC4H8C7NH5C6ClH5Zn2C4O8
_chemical_formula_sum              "N3 C31 O9 H18 Cl1 Zn2"
_cell_length_a       19.189071930511275
_cell_length_b       9.275154477615127
_cell_length_c       10.302974078461048
_cell_angle_alpha    85.7869106659326
_cell_angle_beta     89.9779158844828
_cell_angle_gamma    89.42495848434854

_space_group_name_H-M_alt    "P 1"
_space_group_IT_number       1

loop_
  _space_group_symop_operation_xyz
  'x, y, z'

loop_
  _atom_site_type_symbol
  _atom_site_label
  _atom_site_symmetry_multiplicity
  _atom_site_fract_x
  _atom_site_fract_y
  _atom_site_fract_z
  _atom_site_occupancy
  N   N1        1.0  0.6486801593215346  0.5777197603213837  0.5731489493255144  1.0000
  C   C1        1.0  0.5939786525719737  0.6289193836522797  0.5550464179853282  1.0000
  C   C2        1.0  0.5259370412961375  0.6926031832206208  0.5325295863440347  1.0000
  C   C3        1.0  0.5157273086064055  0.8002066753008118  0.43152988933462444  1.0000
  C   C4        1.0  0.44963185084783247  0.8621484327598163  0.4097835264050697  1.0000
  C   C5        1.0  0.3930879012031735  0.8163717540756967  0.48768160692299606  1.0000
  O   O1        1.0  0.3278022045852669  0.8823452459289954  0.46368548761299544  1.0000
  C   C6        1.0  0.2631478703470172  0.8161613155679807  0.48711682860344657  1.0000
  C   C7        1.0  0.2059738157715423  0.9022995431691196  0.5176746684571769  1.0000
  C   C8        1.0  0.1404686602249303  0.8406747119962205  0.5402725545969795  1.0000
  C   C9        1.0  0.1314825490900829  0.6921097800444689  0.5312041162791121  1.0000
  C   C10       1.0  0.0640482092053979  0.6286475318112128  0.5543160274684855  1.0000
  N   N2        1.0  0.0098349798320841  0.5776260915882492  0.5728974122406885  1.0000
  C   C11       1.0  0.18818500131050991  0.6056293093099789  0.4987282799805841  1.0000
  C   C12       1.0  0.2536810876688563  0.6672979270521475  0.47617417175891075  1.0000
  C   C13       1.0  0.4037750115847409  0.709770353286699  0.5903027480457887  1.0000
  C   C14       1.0  0.4698615779212802  0.6478240390507422  0.6121104530477852  1.0000
  H   H1        1.0  0.5588034494883688  0.8363013831183899  0.3697875558171808  1.0000
  H   H2        1.0  0.4421989106288333  0.9454547412455019  0.3316370090718059  1.0000
  H   H3        1.0  0.21245954252404575  0.01728701209220107  0.5246596422908794  1.0000
  H   H4        1.0  0.0968945599377063  0.9088042538933798  0.5646121404480948  1.0000
  H   H5        1.0  0.1816919445681698  0.4908118724066741  0.4901695661807741  1.0000
  H   H6        1.0  0.2965449789368091  0.5994000862253404  0.44842278166262606  1.0000
  H   H7        1.0  0.3613962747624807  0.6760929030525186  0.6545061648223861  1.0000
  H   H8        1.0  0.4772955078021843  0.5656810252456568  0.6913522593989871  1.0000
  C   C15       1.0  0.8312775130869148  0.15428312663047497  0.5715194535180428  1.0000
  C   C16       1.0  0.8121491035119468  0.2374671736429603  0.45706633422561976  1.0000
  C   C17       1.0  0.7873523539544863  0.17143518023155346  0.34868062113190934  1.0000
  C   C18       1.0  0.7812757242231935  0.02131623058104592  0.3534716315133606  1.0000
  C   C19       1.0  0.8010500193681352  0.9369243411755588  0.4653151295360607  1.0000
  C   C20       1.0  0.8272443722989047  0.0010516901687331822  0.574538115225566  1.0000
  C   C21       1.0  0.7672968121284462  0.25820127994778685  0.23284852847685664  1.0000
  N   N3        1.0  0.7511777195591529  0.3279453166363322  0.13974919580927891  1.0000
  H   H9        1.0  0.8447897066243288  0.23095067193220295  0.8901828608591662  1.0000
  H   H10       1.0  0.8149950962798838  0.3544258362800412  0.45321228706677164  1.0000
  H   H11       1.0  0.7618465400387187  0.9691946941613935  0.27017066247053356  1.0000
  H   H12       1.0  0.797390660330647  0.8204576937740675  0.4652034254041939  1.0000
  H   H13       1.0  0.8392997465885599  0.702278313304844  0.7880495716077524  1.0000
  C   C22       1.0  0.8292609469119516  0.5776674166224174  0.19178627149525784  1.0000
  C   C23       1.0  0.8178521954582888  0.42792280687106116  0.2004945518974179  1.0000
  C   C24       1.0  0.812191519926469  0.3536236100999696  0.08785857187741851  1.0000
  C   C25       1.0  0.8178522262381048  0.42792288828847247  0.9653866531948742  1.0000
  C   C26       1.0  0.8292609454888744  0.5776673421995853  0.954271290304606  1.0000
  C   C27       1.0  0.8349097210329725  0.6518097361978561  0.06812120271329158  1.0000
  Cl  Cl1       1.0  0.7979392812992596  0.1665570183788656  0.10024082564146375  1.0000
  H   H14       1.0  0.8335588284957938  0.63407362642221  0.515808951381131  1.0000
  H   H15       1.0  0.8133146780663496  0.3683658787289872  0.2944832680783931  1.0000
  H   H16       1.0  0.8133147268614339  0.3683658581433087  0.8792823018972279  1.0000
  H   H17       1.0  0.8437084613218648  0.7672972737812339  0.060476790482949065  1.0000
  H   H18       1.0  0.8335586959509801  0.6340736136978122  0.6227813209466322  1.0000
  Zn  Zn1       1.0  0.7529016662467295  0.5776888832695799  0.5730838390035928  1.0000
  Zn  Zn2       1.0  0.9056135462529239  0.5776452181675349  0.5729730955275067  1.0000
  C   C28       1.0  0.8292867386731857  0.5719236472785102  0.8101247936824969  1.0000
  C   C29       1.0  0.8292301327707706  0.5834122728516384  0.33593227354859345  1.0000
  C   C30       1.0  0.8280031318214397  0.8409943889655179  0.568794038203198  1.0000
  C   C31       1.0  0.830513695763177  0.31433979895597886  0.5772630921062019  1.0000
  O   O2        1.0  0.8871731838204487  0.5853174383858026  0.38426693963253933  1.0000
  O   O3        1.0  0.8872484762164079  0.5699842532696388  0.7617056982631092  1.0000
  O   O4        1.0  0.8862111662111292  0.7872622802691747  0.5668294116692452  1.0000
  O   O5        1.0  0.8882104416663843  0.36803942171503157  0.5791431289585718  1.0000
  O   O6        1.0  0.7703047187201914  0.787294679738554  0.5669138056034959  1.0000
  O   O7        1.0  0.7713420204717328  0.5700183849641399  0.7617900291500181  1.0000
  O   O8        1.0  0.7712667283614508  0.5853515198379067  0.3843497094572159  1.0000
  O   O9        1.0  0.7723039862536525  0.36807349285484126  0.5792259960820488  1.0000
