data_image0
_chemical_formula_structural       NC5NC3OH4C6ClH5C6NCH7Zn2C4O8
_chemical_formula_sum              "N3 C25 O9 H16 Cl1 Zn2"
_cell_length_a       13.84702359539666
_cell_length_b       10.30297070629231
_cell_length_c       9.273390368590327
_cell_angle_alpha    86.16779528597041
_cell_angle_beta     89.97653543286326
_cell_angle_gamma    89.99918224466363

_space_group_name_H-M_alt    "P 1"
_space_group_IT_number       1

loop_
  _space_group_symop_operation_xyz
  'x, y, z'

loop_
  _atom_site_type_symbol
  _atom_site_label
  _atom_site_symmetry_multiplicity
  _atom_site_fract_x
  _atom_site_fract_y
  _atom_site_fract_z
  _atom_site_occupancy
  N   N1        1.0  0.909516591733653  0.40566557310206636  0.4098667992966154  1.0000
  C   C1        1.0  0.8373658436765878  0.3984640081306147  0.47291899524659375  1.0000
  C   C2        1.0  0.7475111152945373  0.3894965383836555  0.5514322644962872  1.0000
  C   C3        1.0  0.6599349847536043  0.3981596767324704  0.4755828104870592  1.0000
  C   C4        1.0  0.5720656634237089  0.3895971896997781  0.5505506012357386  1.0000
  C   C5        1.0  0.48222286621237115  0.3985165710559979  0.4724584766336113  1.0000
  N   N2        1.0  0.4100008860169466  0.40568707107821145  0.40967863417932193  1.0000
  C   C6        1.0  0.5717670964977085  0.37234571547543527  0.7015931940951523  1.0000
  C   C7        1.0  0.6589629912487598  0.3636744761045549  0.777510670766584  1.0000
  C   C8        1.0  0.7471476905565245  0.37218179589130257  0.7030275015342553  1.0000
  O   O1        1.0  0.834063939747532  0.3634957705358343  0.7790763651501604  1.0000
  H   H1        1.0  0.6601708689473671  0.41152474078152135  0.3585680062753626  1.0000
  H   H2        1.0  0.5042061413095624  0.3656065790775449  0.7605962953252652  1.0000
  H   H3        1.0  0.6579487777076193  0.35033592803639635  0.8942940936990501  1.0000
  H   H4        1.0  0.8355844755081123  0.35101212225029266  0.8883739439651793  1.0000
  C   C9        1.0  0.15976333410424504  0.02442892941478459  0.4097789124231747  1.0000
  C   C10       1.0  0.25948039146379  0.02155573525791677  0.4375023759116689  1.0000
  C   C11       1.0  0.30895733384600244  0.9031732881302331  0.45125791779582025  1.0000
  C   C12       1.0  0.2594803906999774  0.7864477659394874  0.4375023081277977  1.0000
  C   C13       1.0  0.1597633444017875  0.7869138720172475  0.4097789949253996  1.0000
  C   C14       1.0  0.1103908913542937  0.9064981328084435  0.3960523709048369  1.0000
  Cl  Cl1       1.0  0.4335276966870638  0.9010875000634395  0.48589102959118335  1.0000
  H   H5        1.0  0.12220166516395303  0.3528143219361361  0.3993351623618744  1.0000
  H   H6        1.0  0.29914028859812536  0.1109382594400312  0.4485285473620377  1.0000
  H   H7        1.0  0.2991402504182998  0.6957370656196085  0.44852844382488377  1.0000
  H   H8        1.0  0.03348607063241027  0.9077856997823939  0.3746711581097275  1.0000
  H   H9        1.0  0.12220166042561464  0.4597863578631022  0.39933543448218267  1.0000
  C   C15       1.0  0.1598081100502302  0.40162285529775754  0.9865331387015206  1.0000
  C   C16       1.0  0.24850521193488584  0.3990470799621333  0.06010227299754089  1.0000
  C   C17       1.0  0.33565523703973393  0.40853998810824077  0.9846547152855631  1.0000
  C   C18       1.0  0.3363224366125075  0.42096048193685015  0.8330264761575656  1.0000
  C   C19       1.0  0.24821396226784387  0.42134682121708544  0.7586475184744432  1.0000
  C   C20       1.0  0.15971861195149353  0.40971993394738776  0.8330247071113459  1.0000
  N   N3        1.0  0.4251046912527283  0.4319482941364008  0.7522048216490602  1.0000
  C   C21       1.0  0.520454695649806  0.432105403040719  0.8191571663937651  1.0000
  H   H10       1.0  0.00737998720110666  0.339253322284246  0.2724304475087882  1.0000
  H   H11       1.0  0.40219324797403694  0.40734821127211585  0.04575070036601314  1.0000
  H   H12       1.0  0.934658970371768  0.30884830095505733  0.7376182456381213  1.0000
  H   H13       1.0  0.4219712682942206  0.4405523595259533  0.6393301667139943  1.0000
  H   H14       1.0  0.5267222137833119  0.5153881739928324  0.8886233467662565  1.0000
  H   H15       1.0  0.5322345149683505  0.33930340398466924  0.884706673141129  1.0000
  H   H16       1.0  0.5770493215684541  0.44192257228830933  0.7342453194640259  1.0000
  Zn  Zn1       1.0  0.053945545402524164  0.4056683808767325  0.4098208095737015  1.0000
  Zn  Zn2       1.0  0.2655719070432536  0.40567375288063157  0.4097363865006196  1.0000
  C   C22       1.0  0.15973335427494795  0.403017362105301  0.673019683054005  1.0000
  C   C23       1.0  0.1597864091092236  0.40832641116153806  0.14653765356160942  1.0000
  C   C24       1.0  0.15975899565311802  0.6427330189536902  0.4040354985469814  1.0000
  C   C25       1.0  0.1597606955095794  0.16860919524073845  0.4155219149388767  1.0000
  O   O2        1.0  0.2400902274175567  0.41057256045785495  0.20020459229146303  1.0000
  O   O3        1.0  0.2400490477950817  0.4007743066565323  0.6192882542682139  1.0000
  O   O4        1.0  0.24006867074168126  0.5943477454877147  0.4020816226030097  1.0000
  O   O5        1.0  0.24007053226864475  0.21699912987839465  0.4174111159184139  1.0000
  O   O6        1.0  0.07944684795944279  0.5943430038784776  0.4021460801771357  1.0000
  O   O7        1.0  0.07942722501662836  0.400771124119212  0.6193526349933249  1.0000
  O   O8        1.0  0.07946840488658902  0.4105693161035053  0.20026724016355435  1.0000
  O   O9        1.0  0.07944870972229981  0.21699587727183034  0.41747387184998774  1.0000
