data_image0
_chemical_formula_structural       NC9NC3SH6C8H6C6NCOCH9Zn2C4O8
_chemical_formula_sum              "N3 C32 S1 H21 O9 Zn2"
_cell_length_a       16.77567553997237
_cell_length_b       9.27514070457351
_cell_length_c       10.300272075376752
_cell_angle_alpha    85.67809769676893
_cell_angle_beta     90.39584268328142
_cell_angle_gamma    91.48491386358626

_space_group_name_H-M_alt    "P 1"
_space_group_IT_number       1

loop_
  _space_group_symop_operation_xyz
  'x, y, z'

loop_
  _atom_site_type_symbol
  _atom_site_label
  _atom_site_symmetry_multiplicity
  _atom_site_fract_x
  _atom_site_fract_y
  _atom_site_fract_z
  _atom_site_occupancy
  N   N1        1.0  0.759872698105521  0.5994725969033134  0.5781465417415312  1.0000
  C   C1        1.0  0.7054379720537785  0.6542385934739257  0.6198731783798919  1.0000
  C   C2        1.0  0.6378836568884835  0.7221995744478273  0.6716527432574451  1.0000
  C   C3        1.0  0.6405796412000959  0.819994414885261  0.7669331599675646  1.0000
  C   C4        1.0  0.5652193804671233  0.8682619867221112  0.7985570048936841  1.0000
  C   C5        1.0  0.5028714612487651  0.8082653994537264  0.7278041245843261  1.0000
  C   C6        1.0  0.4165468354502175  0.8372071320827423  0.7387226021101376  1.0000
  C   C7        1.0  0.3592230529559521  0.7488418299958006  0.6802307168718551  1.0000
  C   C8        1.0  0.2777353180331177  0.7755512587007962  0.6900873888521111  1.0000
  C   C9        1.0  0.21972706374927164  0.6842228965686759  0.6301932794894567  1.0000
  N   N2        1.0  0.1731055258064605  0.6108079809829967  0.5820472639760113  1.0000
  C   C10       1.0  0.2527435362301402  0.8909742263331548  0.7582756435710454  1.0000
  C   C11       1.0  0.3089766791383687  0.97951602189021  0.8163063508752031  1.0000
  C   C12       1.0  0.3903090732907225  0.953209894817681  0.8067452102575104  1.0000
  S   S1        1.0  0.5428058276966714  0.6949271554281442  0.6264313833382145  1.0000
  H   H1        1.0  0.6951855796280639  0.8553625156817233  0.8127833525769791  1.0000
  H   H2        1.0  0.5573869172810115  0.9436438373612175  0.8722152629394476  1.0000
  H   H3        1.0  0.3775023214414043  0.6585754700252466  0.6275722446075451  1.0000
  H   H4        1.0  0.18988333684874567  0.9125810307202683  0.766413990959526  1.0000
  H   H5        1.0  0.2895128635315709  0.06910336910790262  0.8686457654276136  1.0000
  H   H6        1.0  0.4321612664248248  0.024980358738193154  0.8516709955286881  1.0000
  C   C13       1.0  0.9640707524356072  0.18163352574652689  0.5791659175066297  1.0000
  C   C14       1.0  0.975458998950063  0.26542741706726125  0.460814083538115  1.0000
  C   C15       1.0  0.9938007671090138  0.20065400960073232  0.3471822332489811  1.0000
  C   C16       1.0  0.0011930552554022548  0.0509260461510681  0.34972075995607543  1.0000
  C   C17       1.0  0.9887836442556409  0.9655240160838043  0.4659346485119902  1.0000
  C   C18       1.0  0.9689150179056178  0.028636186747690983  0.5810392300098344  1.0000
  C   C19       1.0  0.020622751591756305  0.9844327993830351  0.2324693389296457  1.0000
  C   C20       1.0  0.036890931112220526  0.9287460488237823  0.13430476699346938  1.0000
  H   H7        1.0  0.9771061912635565  0.25838969294653746  0.8983746281602453  1.0000
  H   H8        1.0  0.9720304226897081  0.38215957157792424  0.45680412368997403  1.0000
  H   H9        1.0  0.002998251577815527  0.2676772589019283  0.2574944408488953  1.0000
  H   H10       1.0  0.9928031630671296  0.8490270977826587  0.4658121716333737  1.0000
  H   H11       1.0  0.9746313220387164  0.7301948264083326  0.7960802002614955  1.0000
  H   H12       1.0  0.05117090117775835  0.8798630798446135  0.04813688696931639  1.0000
  C   C21       1.0  0.9665002737360581  0.6052814930969834  0.19875021193002107  1.0000
  C   C22       1.0  0.8850902495151376  0.6371590495161723  0.1946162809089491  1.0000
  C   C23       1.0  0.8443193773261694  0.6551771283444601  0.07512517738609792  1.0000
  C   C24       1.0  0.885096428447639  0.6368304654450887  0.959481670849465  1.0000
  C   C25       1.0  0.9664855402753793  0.6049881700020465  0.961454934801456  1.0000
  C   C26       1.0  0.006828613998894892  0.5899211510676317  0.08159109906708628  1.0000
  N   N3        1.0  0.7606767803298475  0.6855832688379548  0.06942453517378078  1.0000
  C   C27       1.0  0.7216080700014663  0.7742741091760796  0.15670138286392787  1.0000
  O   O1        1.0  0.7616274490684531  0.8524946717341383  0.22950836599269575  1.0000
  C   C28       1.0  0.6327843848010162  0.7824432645760491  0.15477337927394785  1.0000
  H   H13       1.0  0.9971785561626308  0.591078295987101  0.5278845475423992  1.0000
  H   H14       1.0  0.8530422643138246  0.6451346065680572  0.2844760082854745  1.0000
  H   H15       1.0  0.853012577559873  0.6487605475267076  0.8678372044238665  1.0000
  H   H16       1.0  0.06962276269810941  0.5653741385637256  0.08396800730404674  1.0000
  H   H17       1.0  0.9970492758167591  0.5908036235519647  0.634935137397918  1.0000
  H   H18       1.0  0.7271566097013072  0.6487038689394375  0.9920737293583487  1.0000
  H   H19       1.0  0.6056910625164446  0.6739399824085874  0.1419093120043673  1.0000
  H   H20       1.0  0.6111573697475514  0.8203661990363007  0.24769743711546346  1.0000
  H   H21       1.0  0.6140674651193535  0.8589944229190032  0.07290055153358455  1.0000
  Zn  Zn1       1.0  0.8791227465662422  0.6027398905451973  0.5792797046505525  1.0000
  Zn  Zn2       1.0  0.053855404886803404  0.6075289183046364  0.5809247396984389  1.0000
  C   C29       1.0  0.9664536663445851  0.599298279619827  0.8172746611983281  1.0000
  C   C30       1.0  0.9665264035884941  0.6109724011498685  0.342929932599801  1.0000
  C   C31       1.0  0.9679953604730468  0.8685365307402473  0.5755101221025825  1.0000
  C   C32       1.0  0.9649846399247572  0.34173241566617985  0.5846945365376881  1.0000
  O   O2        1.0  0.03284527022680761  0.6146934411992679  0.3919422322668807  1.0000
  O   O3        1.0  0.032752838117835026  0.5992109129996841  0.769510528833057  1.0000
  O   O4        1.0  0.03399688170551119  0.8166241807430414  0.5742839478897823  1.0000
  O   O5        1.0  0.031601167075600234  0.3972801821758913  0.5871687153011962  1.0000
  O   O6        1.0  0.9013769247497739  0.8129886250412552  0.5730357284795982  1.0000
  O   O7        1.0  0.9001328910697013  0.5955770900284776  0.768262244012534  1.0000
  O   O8        1.0  0.9002253229744828  0.6110595685735201  0.39069238600285927  1.0000
  O   O9        1.0  0.8989812197591351  0.3936462991974748  0.5859189663779372  1.0000
