data_image0
_chemical_formula_structural       NC9NC3SH6C9H10C12H10Zn2C4O8
_chemical_formula_sum              "N2 C37 S1 H26 Zn2 O8"
_cell_length_a       16.77567553997237
_cell_length_b       9.272676604525723
_cell_length_c       10.299141136925906
_cell_angle_alpha    85.79349771759213
_cell_angle_beta     90.41956326603899
_cell_angle_gamma    91.44448428757873

_space_group_name_H-M_alt    "P 1"
_space_group_IT_number       1

loop_
  _space_group_symop_operation_xyz
  'x, y, z'

loop_
  _atom_site_type_symbol
  _atom_site_label
  _atom_site_symmetry_multiplicity
  _atom_site_fract_x
  _atom_site_fract_y
  _atom_site_fract_z
  _atom_site_occupancy
  N   N1        1.0  0.7588951950073877  0.5995384385762557  0.5808228946116554  1.0000
  C   C1        1.0  0.7044500662828972  0.6543128642879132  0.6226509570308116  1.0000
  C   C2        1.0  0.6368828419781334  0.7222843052390349  0.6745563845499011  1.0000
  C   C3        1.0  0.6395655495004207  0.8200956159660081  0.7700201642112421  1.0000
  C   C4        1.0  0.5641948060999573  0.8683702649248255  0.8017328422542613  1.0000
  C   C5        1.0  0.5018518942338436  0.8083627332599445  0.7308661383951269  1.0000
  C   C6        1.0  0.4155189307341224  0.8373081600636363  0.7418370104283141  1.0000
  C   C7        1.0  0.3582141869736056  0.748929860851417  0.683182430366424  1.0000
  C   C8        1.0  0.2767187014032996  0.775642683794372  0.6930874318365154  1.0000
  C   C9        1.0  0.2187302669109835  0.6843009269040442  0.6330252327044688  1.0000
  N   N2        1.0  0.17212466130806517  0.6108752438703962  0.5847440971328258  1.0000
  C   C10       1.0  0.2516999554796971  0.8910820673191002  0.7614873097222461  1.0000
  C   C11       1.0  0.3079138741581169  0.9796368464853055  0.8196809742316035  1.0000
  C   C12       1.0  0.3892539393545926  0.9533273864454632  0.8100722497607854  1.0000
  S   S1        1.0  0.5418039570152104  0.695006019353735  0.6292818705499972  1.0000
  H   H1        1.0  0.6941695926625057  0.8554704513352922  0.8159379043232471  1.0000
  H   H2        1.0  0.5563521636925653  0.9437648257845264  0.875532462667273  1.0000
  H   H3        1.0  0.3765147131530998  0.6586507084819784  0.6303585308389501  1.0000
  H   H4        1.0  0.1888335281750215  0.912691628751312  0.7696647714662221  1.0000
  H   H5        1.0  0.2884289804243572  0.06923689513597386  0.8721845799914782  1.0000
  H   H6        1.0  0.4310900105774436  0.025108230353500176  0.8551298966214557  1.0000
  C   C13       1.0  0.9632541006722991  0.18165686902439682  0.5811030124678566  1.0000
  C   C14       1.0  0.9313577905848918  0.24486067625414873  0.6883608060112634  1.0000
  C   C15       1.0  0.9067574857180137  0.1600280383977239  0.798861952750734  1.0000
  C   C16       1.0  0.913259670944078  0.009455847654363357  0.8058239237009084  1.0000
  C   C17       1.0  0.9438493686768337  0.9447667153254906  0.6975531096513516  1.0000
  C   C18       1.0  0.9677733559714599  0.0287459328157984  0.584475286049656  1.0000
  C   C19       1.0  0.8858112302385289  0.925063549925633  0.9303222832832516  1.0000
  C   C20       1.0  0.8455093856200343  0.7778658428839456  0.9170087842494969  1.0000
  C   C21       1.0  0.929716261265808  0.7876092859394603  0.9727607937033348  1.0000
  H   H7        1.0  0.9809183345685082  0.48100657907138733  0.36844944021736525  1.0000
  H   H8        1.0  0.9271504580780637  0.3612677992789346  0.6881960314275652  1.0000
  H   H9        1.0  0.8831522939216232  0.21281190285429852  0.8802407078130245  1.0000
  H   H10       1.0  0.9476535379560423  0.8284705202657202  0.6987952208029083  1.0000
  H   H11       1.0  0.9884000758366395  0.9525547772711382  0.26666678110935194  1.0000
  H   H12       1.0  0.863255808026658  0.9845526459399282  0.011880108095922772  1.0000
  H   H13       1.0  0.8417892274420047  0.7385317237905829  0.8179645786470856  1.0000
  H   H14       1.0  0.7993129279922553  0.7478024268788317  0.9914959869222815  1.0000
  H   H15       1.0  0.9771230070809575  0.7540646294822707  0.9076594108459928  1.0000
  H   H16       1.0  0.9327326232380808  0.7632343285388824  0.07984950110793099  1.0000
  C   C22       1.0  0.965423740485814  0.6053220152506784  0.20139577241590945  1.0000
  C   C23       1.0  0.04879316866901639  0.6231404843690873  0.2004326866213952  1.0000
  C   C24       1.0  0.09115743100066641  0.6320512474611029  0.0828110283192709  1.0000
  C   C25       1.0  0.0490253663553537  0.6229029896862155  0.9651682267843985  1.0000
  C   C26       1.0  0.9656037128954588  0.6050807961972218  0.9641825409187494  1.0000
  C   C27       1.0  0.9243165504417299  0.5963976703841316  0.0827474319963517  1.0000
  C   C28       1.0  0.17935390743508495  0.6509032118900135  0.08283695130489521  1.0000
  C   C29       1.0  0.2263863422602328  0.5733343654670229  0.0007498783725137274  1.0000
  C   C30       1.0  0.30939594951287397  0.5912580295120387  0.0010128644475499951  1.0000
  C   C31       1.0  0.34633005854284815  0.6865899977113146  0.08289219908197598  1.0000
  C   C32       1.0  0.30032929474661774  0.7641967136703796  0.16474441856756883  1.0000
  C   C33       1.0  0.21730072244043086  0.7466340936587138  0.16495249022505765  1.0000
  H   H17       1.0  0.9333506151417514  0.5985411757204818  0.529237117978703  1.0000
  H   H18       1.0  0.0810797674141579  0.6281430125963625  0.2915076333434803  1.0000
  H   H19       1.0  0.08127037153728511  0.6316844584514283  0.8740794158088588  1.0000
  H   H20       1.0  0.8600116153949663  0.5826578795012519  0.08277438174370677  1.0000
  H   H21       1.0  0.8081027702834342  0.5723558886982947  0.7549699641920267  1.0000
  H   H22       1.0  0.19906954722050507  0.4975217799653057  0.9376842262335789  1.0000
  H   H23       1.0  0.34512512666202566  0.5308751253161219  0.937882076947246  1.0000
  H   H24       1.0  0.41059228684426996  0.7003241891764267  0.08291361952083331  1.0000
  H   H25       1.0  0.329006427965975  0.8383444527145119  0.22789649910675067  1.0000
  H   H26       1.0  0.18273295201698336  0.8092199431315288  0.22799870791331542  1.0000
  Zn  Zn1       1.0  0.8781442768347839  0.6028061424695006  0.5819619616822729  1.0000
  Zn  Zn2       1.0  0.05287551425931114  0.6075957704682631  0.5836156490199671  1.0000
  C   C34       1.0  0.9655372403802019  0.5993804350645051  0.8199765922415021  1.0000
  C   C35       1.0  0.965484468512607  0.6110233499940313  0.3456011712384257  1.0000
  C   C36       1.0  0.9669137733499413  0.8686296036685797  0.5786622995035529  1.0000
  C   C37       1.0  0.9641078666907171  0.3417724468544268  0.5869155257565721  1.0000
  O   O1        1.0  0.0318144098062616  0.614748116481763  0.394625361092227  1.0000
  O   O2        1.0  0.03182425939300159  0.599289797437268  0.772207134611625  1.0000
  O   O3        1.0  0.0329349336082454  0.8167118812758446  0.5773441333974092  1.0000
  O   O4        1.0  0.030703675999155026  0.39732604135736893  0.5894882644023145  1.0000
  O   O5        1.0  0.9003160554677511  0.8130758699475019  0.5760893457287779  1.0000
  O   O6        1.0  0.8992053904774687  0.5956555190115631  0.7709522845916499  1.0000
  O   O7        1.0  0.8991955403072418  0.6111137882898178  0.3933689493718557  1.0000
  O   O8        1.0  0.8980848064648095  0.39369170281834814  0.5882319500149242  1.0000
