data_image0
_chemical_formula_structural       NC9NC3SH6C6NCOCH7C8NH11Zn2C4O8
_chemical_formula_sum              "N4 C32 S1 H24 O9 Zn2"
_cell_length_a       16.77567553997237
_cell_length_b       10.300268703208216
_cell_length_c       9.27565297233854
_cell_angle_alpha    85.93999847967777
_cell_angle_beta     90.8258093540976
_cell_angle_gamma    90.87327597949842

_space_group_name_H-M_alt    "P 1"
_space_group_IT_number       1

loop_
  _space_group_symop_operation_xyz
  'x, y, z'

loop_
  _atom_site_type_symbol
  _atom_site_label
  _atom_site_symmetry_multiplicity
  _atom_site_fract_x
  _atom_site_fract_y
  _atom_site_fract_z
  _atom_site_occupancy
  N   N1        1.0  0.7437624576678549  0.4301228007414618  0.41785009857229816  1.0000
  C   C1        1.0  0.6891983237798573  0.47973202650806784  0.46403047481314585  1.0000
  C   C2        1.0  0.6214834200256628  0.5412937927761873  0.5213367885243514  1.0000
  C   C3        1.0  0.6240453147781452  0.6300276947841523  0.6268541895531079  1.0000
  C   C4        1.0  0.5485469442248186  0.6737138200336082  0.6618367928308346  1.0000
  C   C5        1.0  0.4862238540427262  0.6191887655667261  0.5834510990775299  1.0000
  C   C6        1.0  0.39977885405347796  0.645326319765746  0.5954989958871271  1.0000
  C   C7        1.0  0.3427051271036763  0.5653442113431693  0.530792463197792  1.0000
  C   C8        1.0  0.26110527681842566  0.5894641914410388  0.5416672865180951  1.0000
  C   C9        1.0  0.2033580739549077  0.5068040965909657  0.47541162597825015  1.0000
  N   N2        1.0  0.1569463851843659  0.4403572276012667  0.422151864134263  1.0000
  C   C10       1.0  0.235748513629793  0.6938787055273188  0.6170698544627233  1.0000
  C   C11       1.0  0.2917284023466778  0.7740164606273965  0.681264059911395  1.0000
  C   C12       1.0  0.3731719040324877  0.7502617238599465  0.6707162738631718  1.0000
  S   S1        1.0  0.5263558911383086  0.5164158461176626  0.4712096856661796  1.0000
  H   H1        1.0  0.6786559554793934  0.6621997128330089  0.6776593428265143  1.0000
  H   H2        1.0  0.540612124625116  0.7421128753064263  0.7434094799399027  1.0000
  H   H3        1.0  0.3612729484485551  0.483691738160688  0.4725655121117964  1.0000
  H   H4        1.0  0.17279838683044849  0.7133919241134039  0.6260499567384019  1.0000
  H   H5        1.0  0.2719785643114851  0.855055264475144  0.7391385391057699  1.0000
  H   H6        1.0  0.4148089466266294  0.8152050181613714  0.7204057328086286  1.0000
  C   C13       1.0  0.9504392694754594  0.05389453347361317  0.42001039949593744  1.0000
  C   C14       1.0  0.9632521534461471  0.06270222165591656  0.270314265448982  1.0000
  C   C15       1.0  0.9707974384247904  0.9498688501435512  0.19520151823595122  1.0000
  C   C16       1.0  0.9630719434559527  0.8275384540265921  0.270348347163339  1.0000
  C   C17       1.0  0.9502772429709805  0.8165758130750883  0.42000412747110416  1.0000
  C   C18       1.0  0.9443289577996474  0.9303615004259965  0.49413576072208526  1.0000
  N   N3        1.0  0.9826726998687979  0.9572631672911737  0.04156389839330687  1.0000
  C   C19       1.0  0.029152627703874726  0.0570590988595925  0.9645995264624028  1.0000
  O   O1        1.0  0.07444916955962855  0.13157443735889607  0.03163023315387026  1.0000
  C   C20       1.0  0.02850874828144945  0.06696380677651415  0.8031293997843152  1.0000
  H   H7        1.0  0.9657829399834612  0.15726358543692331  0.2117039224595065  1.0000
  H   H8        1.0  0.9677737459583088  0.7409399435733536  0.21139694877631499  1.0000
  H   H9        1.0  0.934468517997307  0.9227596554382099  0.6095984081843309  1.0000
  H   H10       1.0  0.9604696295985665  0.8809429313019187  0.9834191265283865  1.0000
  H   H11       1.0  0.967318093660202  0.04816876218228397  0.7616281419195898  1.0000
  H   H12       1.0  0.048098454555584924  0.1658577040179783  0.7613049080967316  1.0000
  H   H13       1.0  0.06949369617024947  0.9940162679964729  0.7638789970008473  1.0000
  C   C21       1.0  0.9485839077756534  0.43266021192146004  0.9967180764578085  1.0000
  C   C22       1.0  0.8968527169422571  0.5163246407935752  0.06232610273931605  1.0000
  C   C23       1.0  0.8514150665592303  0.6077227633673646  0.9791524347273705  1.0000
  C   C24       1.0  0.8566319304978577  0.6141787107823296  0.8284213351849936  1.0000
  C   C25       1.0  0.9066076798086447  0.5305286063580374  0.7613869546449288  1.0000
  C   C26       1.0  0.9521326426457394  0.43781012205522  0.8432964572227739  1.0000
  C   C27       1.0  0.7954386174284509  0.6951793161185995  0.05111283673971644  1.0000
  C   C28       1.0  0.7134762586178047  0.6296992006240222  0.0710472349871929  1.0000
  N   N4        1.0  0.6593833561957961  0.7161187856286912  0.1386914193976414  1.0000
  H   H14       1.0  0.0070631880850784475  0.24116821733552432  0.2939353217597904  1.0000
  H   H15       1.0  0.8930610941969945  0.5126177256744333  0.17911417910082858  1.0000
  H   H16       1.0  0.821264503857879  0.6832503659771498  0.7624694929250522  1.0000
  H   H17       1.0  0.9080459238719949  0.536141506987696  0.644382021704931  1.0000
  H   H18       1.0  0.06149429723550126  0.32157868765140596  0.5739556372209891  1.0000
  H   H19       1.0  0.820402026297472  0.7186157948331836  0.15808690526227864  1.0000
  H   H20       1.0  0.7890359036740149  0.7887764808094406  0.9847361165919724  1.0000
  H   H21       1.0  0.6885545894970381  0.6073071558673845  0.9636564404225907  1.0000
  H   H22       1.0  0.7191240425795545  0.5368304613684668  0.13929926638540802  1.0000
  H   H23       1.0  0.6030804084004509  0.6711152673712517  0.14250831776916484  1.0000
  H   H24       1.0  0.6780513933382157  0.7230810004942977  0.2460056686500591  1.0000
  Zn  Zn1       1.0  0.8629984524251576  0.4330728188120603  0.4190998280298348  1.0000
  Zn  Zn2       1.0  0.03771043733282631  0.4373966878354668  0.42091397219371696  1.0000
  C   C29       1.0  0.951461155195509  0.4316632642232966  0.6832750465070607  1.0000
  C   C30       1.0  0.9492496426569041  0.43880792902087357  0.15673891499108028  1.0000
  C   C31       1.0  0.9502796987867695  0.6723777547347765  0.4142612534021495  1.0000
  C   C32       1.0  0.9504310401022223  0.19809187729417713  0.425752784339128  1.0000
  O   O2        1.0  0.015775358321387326  0.44250637940453724  0.21113182851343576  1.0000
  O   O3        1.0  0.017537791984547857  0.4312455481940643  0.6302586114972941  1.0000
  O   O4        1.0  0.016582863489157162  0.6256255305299697  0.4130280609559027  1.0000
  O   O5        1.0  0.01673022674439384  0.24812640422538307  0.42836227035756136  1.0000
  O   O6        1.0  0.8839786033929322  0.6223431009479877  0.41165152923932946  1.0000
  O   O7        1.0  0.8849335312310869  0.42796467835314195  0.6288820029109243  1.0000
  O   O8        1.0  0.8831710903659988  0.4392254537693645  0.20975348689728254  1.0000
  O   O9        1.0  0.8841259592407312  0.24484546995930256  0.426984036812014  1.0000
