data_image0
_chemical_formula_structural       NC9NC3OH6C6NO2H4C8NH7Zn2C4O8
_chemical_formula_sum              "N4 C30 O11 H17 Zn2"
_cell_length_a       15.78231758774541
_cell_length_b       9.273392599741051
_cell_length_c       9.274266800404106
_cell_angle_alpha    86.1050913810774
_cell_angle_beta     89.63778846235708
_cell_angle_gamma    89.0365174922554

_space_group_name_H-M_alt    "P 1"
_space_group_IT_number       1

loop_
  _space_group_symop_operation_xyz
  'x, y, z'

loop_
  _atom_site_type_symbol
  _atom_site_label
  _atom_site_symmetry_multiplicity
  _atom_site_fract_x
  _atom_site_fract_y
  _atom_site_fract_z
  _atom_site_occupancy
  N   N1        1.0  0.7956504789570739  0.5577311998411956  0.4159918883465595  1.0000
  C   C1        1.0  0.7475518876256148  0.4667885188988172  0.44252515316003965  1.0000
  C   C2        1.0  0.6878355703941672  0.35390654914987807  0.4754597731823369  1.0000
  C   C3        1.0  0.7081743962291109  0.2121079433274868  0.516742820415728  1.0000
  C   C4        1.0  0.6317711633432446  0.14338740883707368  0.5368329511225993  1.0000
  C   C5        1.0  0.5694898037690482  0.24833494955962632  0.5063245914487058  1.0000
  C   C6        1.0  0.4764909220766858  0.22893251732248432  0.5120669791673453  1.0000
  C   C7        1.0  0.42217905770688285  0.3479023349295507  0.47729874815782547  1.0000
  C   C8        1.0  0.3340480545896293  0.33199286527869143  0.48201531661901537  1.0000
  C   C9        1.0  0.2790232451186765  0.4544241027828462  0.446226332555318  1.0000
  N   N2        1.0  0.2347962749554812  0.5528430112381121  0.4174551776352585  1.0000
  C   C10       1.0  0.299548461683132  0.19693652505516757  0.5215541190739047  1.0000
  C   C11       1.0  0.35292819933563485  0.07821271048003564  0.5562553040140203  1.0000
  C   C12       1.0  0.4408756203938247  0.0936851108898642  0.5516668954815462  1.0000
  O   O1        1.0  0.6053553264067607  0.3727106156564586  0.4700600423588652  1.0000
  H   H1        1.0  0.7708631171276171  0.16428794310444683  0.530608503032314  1.0000
  H   H2        1.0  0.6235778159290797  0.030391929958691433  0.5697472273237449  1.0000
  H   H3        1.0  0.44828412028607717  0.4530000757657242  0.4465253081873913  1.0000
  H   H4        1.0  0.23149611165148293  0.18346201334659895  0.5255464514441495  1.0000
  H   H5        1.0  0.32608939783635565  0.9738334758704088  0.5868188309588622  1.0000
  H   H6        1.0  0.48040998093863047  0.9996475575078361  0.5791618349179581  1.0000
  C   C13       1.0  0.017814739548400294  0.131722850545259  0.4158256891889005  1.0000
  C   C14       1.0  0.007636152976634226  0.21418970064780374  0.28411242585773633  1.0000
  C   C15       1.0  0.9899573953430283  0.14833390871567878  0.15715223586421656  1.0000
  C   C16       1.0  0.9818689051797796  0.9980172400346173  0.15836360079461143  1.0000
  C   C17       1.0  0.9933739364839002  0.914359677679794  0.2890760781778161  1.0000
  C   C18       1.0  0.012640111458886992  0.9788402513283045  0.4176337961652876  1.0000
  N   N3        1.0  0.9628912444418858  0.9307266114389857  0.027172242413852292  1.0000
  O   O2        1.0  0.9523677683447878  0.012976945321670371  0.8991612715720577  1.0000
  O   O3        1.0  0.9554282547529145  0.7968781670055327  0.02737750557006491  1.0000
  H   H7        1.0  0.9989135338995694  0.21108130219397037  0.7695573597409873  1.0000
  H   H8        1.0  0.9817597572883785  0.21559533210156845  0.05805117827480211  1.0000
  H   H9        1.0  0.9892763007857297  0.7978108770848724  0.2900885270319369  1.0000
  H   H10       1.0  0.002796771349832472  0.6826678836370971  0.6567098260825084  1.0000
  C   C19       1.0  0.017195591249574708  0.5521062079887523  0.9934187946316984  1.0000
  C   C20       1.0  0.9685847039899665  0.44939976677472054  0.07418380645436587  1.0000
  C   C21       1.0  0.914777751128922  0.3579680842639941  0.005909173114489357  1.0000
  C   C22       1.0  0.9077780902291854  0.36784890104760987  0.8552091118555989  1.0000
  C   C23       1.0  0.9575733153815068  0.4670940480592367  0.7731343646647977  1.0000
  C   C24       1.0  0.013259232729769144  0.5584569248097442  0.8400406843520863  1.0000
  C   C25       1.0  0.8506779042353165  0.26774901989206246  0.781719970036848  1.0000
  C   C26       1.0  0.8973691251717192  0.1353726808909539  0.7503763156066028  1.0000
  N   N4        1.0  0.9342254983099203  0.03089712044236025  0.7256361444189776  1.0000
  H   H11       1.0  0.1086010089190112  0.868514699627894  0.07384268825049634  1.0000
  H   H12       1.0  0.9707937360090805  0.4419055530532469  0.19118909345298563  1.0000
  H   H13       1.0  0.877860609983023  0.2801897062864669  0.07086164198042066  1.0000
  H   H14       1.0  0.9542532794321087  0.47042182891454415  0.6562393977447059  1.0000
  H   H15       1.0  0.07789552979069375  0.7686489851205598  0.5443705775789387  1.0000
  H   H16       1.0  0.8261855529945132  0.32083190754757407  0.6789831264848317  1.0000
  H   H17       1.0  0.7952839101747611  0.23873172616400828  0.8516330995782921  1.0000
  Zn  Zn1       1.0  0.9223784508283931  0.5563167838025884  0.41642247138305566  1.0000
  Zn  Zn2       1.0  0.10806829171364102  0.5542457434554879  0.4170363533481637  1.0000
  C   C27       1.0  0.014036517260014529  0.5515104228820371  0.6799987774115812  1.0000
  C   C28       1.0  0.016412241234473143  0.5590539027410724  0.1534601993926626  1.0000
  C   C29       1.0  0.013640570757939436  0.8186740167808242  0.4115477109607637  1.0000
  C   C30       1.0  0.01680813460193307  0.29188857718820566  0.42191133878845144  1.0000
  O   O4        1.0  0.0866177071371319  0.5605933709402298  0.20740450840189717  1.0000
  O   O5        1.0  0.08476535259495899  0.5483979917465485  0.6265199733263174  1.0000
  O   O6        1.0  0.08444466387131427  0.7641359944031403  0.4097438378921036  1.0000
  O   O7        1.0  0.08693833293691422  0.3448553784976902  0.4241805355649557  1.0000
  O   O8        1.0  0.9435083462383165  0.7657071494686438  0.40927828894919666  1.0000
  O   O9        1.0  0.9438290247297716  0.54997087917439  0.6260543512213725  1.0000
  O   O10       1.0  0.9456813876934055  0.5621661951037171  0.20693715307002436  1.0000
  O   O11       1.0  0.9460020130502457  0.34642819315538276  0.4237132882871719  1.0000
