data_image0
_chemical_formula_structural       NC9NC3OH6C9H9C8NH7Zn2C4O8
_chemical_formula_sum              "N3 C33 O9 H22 Zn2"
_cell_length_a       15.78231758774541
_cell_length_b       9.272676604525723
_cell_length_c       9.274266800404105
_cell_angle_alpha    86.24029602187467
_cell_angle_beta     89.63778846235708
_cell_angle_gamma    90.18380166211226

_space_group_name_H-M_alt    "P 1"
_space_group_IT_number       1

loop_
  _space_group_symop_operation_xyz
  'x, y, z'

loop_
  _atom_site_type_symbol
  _atom_site_label
  _atom_site_symmetry_multiplicity
  _atom_site_fract_x
  _atom_site_fract_y
  _atom_site_fract_z
  _atom_site_occupancy
  N   N1        1.0  0.8139636412414315  0.5574057383904436  0.4194914369748397  1.0000
  C   C1        1.0  0.7647959000625257  0.4664820583751046  0.445820392897045  1.0000
  C   C2        1.0  0.703752508024333  0.3536236733946041  0.4785014159300591  1.0000
  C   C3        1.0  0.7224243062742962  0.21185469398013868  0.5194659029930254  1.0000
  C   C4        1.0  0.6452131738608868  0.14314851747706903  0.5394016483654851  1.0000
  C   C5        1.0  0.584165609529921  0.24807413119523256  0.5091290604487563  1.0000
  C   C6        1.0  0.4909386269365132  0.22867575276644  0.5148278592894638  1.0000
  C   C7        1.0  0.43802540796650785  0.3476207136527585  0.480326902031703  1.0000
  C   C8        1.0  0.3497073682799129  0.33171456801510124  0.4850077287919503  1.0000
  C   C9        1.0  0.2961218977150033  0.4541202255936698  0.44949379479421436  1.0000
  N   N2        1.0  0.2530519702062622  0.552518571091263  0.4209437446168192  1.0000
  C   C10       1.0  0.31362001191570416  0.19668644551773373  0.5242431180326612  1.0000
  C   C11       1.0  0.3656039962549564  0.07798743626519822  0.5586775818834879  1.0000
  C   C12       1.0  0.4537333155634106  0.09345660398001197  0.5541239331463084  1.0000
  O   O1        1.0  0.6214933303682525  0.37242381111118145  0.473143929715385  1.0000
  H   H1        1.0  0.7845508406899152  0.1640446849331434  0.5332241547407925  1.0000
  H   H2        1.0  0.6356914171920894  0.03017664708292855  0.5720620725714005  1.0000
  H   H3        1.0  0.4653660315872017  0.45269649610278284  0.4497895712531601  1.0000
  H   H4        1.0  0.24540925142168105  0.18321474907930232  0.5282051789998733  1.0000
  H   H5        1.0  0.3375380806921479  0.9736300099220603  0.5890066138093331  1.0000
  H   H6        1.0  0.492162141998041  0.9994386981460023  0.5814076108509287  1.0000
  C   C13       1.0  0.031119617967131363  0.13148639629639702  0.4183681812116724  1.0000
  C   C14       1.0  0.9966558209534969  0.19687283725267424  0.5376403271189161  1.0000
  C   C15       1.0  0.9699277294908392  0.11396383594014582  0.6604611552355053  1.0000
  C   C16       1.0  0.9768001417889296  0.9631960436795961  0.6681428019476112  1.0000
  C   C17       1.0  0.009880878572657839  0.8963669222603753  0.5477554470611925  1.0000
  C   C18       1.0  0.03590398672351181  0.978426825067288  0.4220794425096086  1.0000
  C   C19       1.0  0.9469711708975805  0.8809605063574248  0.8065194998443534  1.0000
  C   C20       1.0  0.9042160465019126  0.7352332606284602  0.7920253237006669  1.0000
  C   C21       1.0  0.993400392505306  0.7421459344647255  0.8533150204649973  1.0000
  H   H7        1.0  0.05102001055764524  0.42830179664491125  0.1822143130348977  1.0000
  H   H8        1.0  0.9921858677386938  0.3134440662706415  0.5374869659402746  1.0000
  H   H9        1.0  0.9444118079977448  0.16838029297983637  0.7509512762509689  1.0000
  H   H10       1.0  0.05951111587424605  0.8986752727143209  0.06919050415915473  1.0000
  H   H11       1.0  0.9225698123579351  0.942042442196254  0.8972010080220224  1.0000
  H   H12       1.0  0.9007891513255927  0.695188827501491  0.6821196113853119  1.0000
  H   H13       1.0  0.8547306333855259  0.7076316486116262  0.8750248686747771  1.0000
  H   H14       1.0  0.0441220221725378  0.706173039238157  0.7807245549539881  1.0000
  H   H15       1.0  0.9960366716278696  0.718578561437871  0.9721544802222536  1.0000
  C   C22       1.0  0.035442624417013624  0.5517819217844158  0.9969057063348639  1.0000
  C   C23       1.0  0.9856242889623683  0.44909693933513317  0.07743998118217689  1.0000
  C   C24       1.0  0.930742437402549  0.35768435992000946  0.00895994037588799  1.0000
  C   C25       1.0  0.9238589383934376  0.3675631122749449  0.8582820770410196  1.0000
  C   C26       1.0  0.9748209197122559  0.46678752370040016  0.7764302907937521  1.0000
  C   C27       1.0  0.031580926857825986  0.5581313117310982  0.8435418633706533  1.0000
  C   C28       1.0  0.8655819477182269  0.267484145287737  0.7845680540605998  1.0000
  C   C29       1.0  0.9107169121072973  0.13513546407209298  0.752927007220409  1.0000
  N   N3        1.0  0.9463450387460761  0.030681732015634504  0.7279521246112663  1.0000
  H   H16       1.0  0.1305678366544264  0.8681243052485847  0.07804043305696329  1.0000
  H   H17       1.0  0.9877452167231294  0.4416042914022047  0.1944284319221719  1.0000
  H   H18       1.0  0.8929109099631333  0.27992223241222725  0.07373767484862692  1.0000
  H   H19       1.0  0.9715400061678379  0.47011460927247467  0.6595427999587051  1.0000
  H   H20       1.0  0.0986883057791823  0.7682794559844504  0.548343967294969  1.0000
  H   H21       1.0  0.841713655067414  0.32055594217635086  0.6819504648104158  1.0000
  H   H22       1.0  0.8098468175173987  0.23847291422987538  0.8544159942866636  1.0000
  Zn  Zn1       1.0  0.940674984807139  0.555991617870021  0.41991884242992256  1.0000
  Zn  Zn2       1.0  0.12634047791147385  0.5539210102315906  0.4205280716626423  1.0000
  C   C30       1.0  0.03227654619633388  0.5511862611568694  0.6834843506431587  1.0000
  C   C31       1.0  0.034740953616858805  0.5587281649340368  0.15696271956257934  1.0000
  C   C32       1.0  0.035021456250280414  0.8182940357648394  0.41563348529805877  1.0000
  C   C33       1.0  0.03199597007044461  0.2916186590337866  0.42481365396237325  1.0000
  O   O2        1.0  0.10496451797640552  0.5602673114874879  0.21091048709137472  1.0000
  O   O3        1.0  0.10296879084317417  0.5480744803109512  0.6299985542705786  1.0000
  O   O4        1.0  0.10518438376681022  0.7637674081797143  0.4137070888688719  1.0000
  O   O5        1.0  0.10274886224898716  0.34457439383064226  0.4272018442448725  1.0000
  O   O6        1.0  0.9642665371111484  0.7653382349790789  0.4132450696322171  1.0000
  O   O7        1.0  0.9620509543215029  0.5496470391107058  0.629536465763755  1.0000
  O   O8        1.0  0.9640466891324391  0.5618398070361057  0.21044666521549504  1.0000
  O   O9        1.0  0.9618310328503257  0.34614687987545234  0.4267381304017266  1.0000
