data_image0
_chemical_formula_structural       NC5NC3OH4C6BrH5C7NH4Zn2C4O8
_chemical_formula_sum              "N3 C25 O9 H13 Br1 Zn2"
_cell_length_a       13.84702359539666
_cell_length_b       9.276564384272257
_cell_length_c       9.275157849593905
_cell_angle_alpha    86.064957766791
_cell_angle_beta     89.7265770318806
_cell_angle_gamma    90.58678901707502

_space_group_name_H-M_alt    "P 1"
_space_group_IT_number       1

loop_
  _space_group_symop_operation_xyz
  'x, y, z'

loop_
  _atom_site_type_symbol
  _atom_site_label
  _atom_site_symmetry_multiplicity
  _atom_site_fract_x
  _atom_site_fract_y
  _atom_site_fract_z
  _atom_site_occupancy
  N   N1        1.0  0.9249052642388402  0.5629498518442446  0.40870418024702093  1.0000
  C   C1        1.0  0.8525148740736669  0.5548878923880676  0.4717562127043698  1.0000
  C   C2        1.0  0.7623617407434157  0.5448490497805958  0.5502692783750718  1.0000
  C   C3        1.0  0.6750738901833776  0.5545472022314244  0.4744200211151026  1.0000
  C   C4        1.0  0.5869196394333517  0.5449617266618101  0.5493876174470429  1.0000
  C   C5        1.0  0.49737364662776323  0.5549467354879918  0.4712956953194663  1.0000
  N   N2        1.0  0.4253902737299821  0.5629739181970228  0.4085160156114177  1.0000
  C   C6        1.0  0.5860470057835057  0.5256491625147602  0.7004298186614644  1.0000
  C   C7        1.0  0.6729543594875611  0.5159419440741537  0.7763470987234746  1.0000
  C   C8        1.0  0.7614221477239904  0.5254656597829255  0.7018641224756512  1.0000
  O   O1        1.0  0.8480493581898174  0.515741886908468  0.7779127889312789  1.0000
  H   H1        1.0  0.6757545126893639  0.5695090331719974  0.3574055202149664  1.0000
  H   H2        1.0  0.5182617975328923  0.5181048798541708  0.7594327669386798  1.0000
  H   H3        1.0  0.6714962877197251  0.5010097962944527  0.8931302188599382  1.0000
  H   H4        1.0  0.849154486342027  0.5017667774753847  0.8872100844589084  1.0000
  C   C9        1.0  0.17224168931533024  0.13948432644415765  0.40897969189193817  1.0000
  C   C10       1.0  0.16025594574989954  0.22171435796722494  0.27726942152702905  1.0000
  C   C11       1.0  0.15725414455754394  0.15546851389295724  0.14678605455975124  1.0000
  C   C12       1.0  0.16622396845737344  0.00604977005795848  0.1455353318592561  1.0000
  C   C13       1.0  0.1765143056390568  0.9221071433713065  0.275254489933624  1.0000
  C   C14       1.0  0.17806296252368492  0.986428429294988  0.40825288557881695  1.0000
  Br  Br1       1.0  0.16282905681959248  0.9159672412385839  0.9664890819569294  1.0000
  H   H5        1.0  0.1432288244306179  0.404292047060365  0.6432833359228013  1.0000
  H   H6        1.0  0.15549745199576775  0.33834675798944014  0.2748040453378784  1.0000
  H   H7        1.0  0.14887323109335626  0.2207214535783453  0.04640641111492228  1.0000
  H   H8        1.0  0.18099180380907276  0.805837449103156  0.272145764899955  1.0000
  H   H9        1.0  0.2306722229822078  0.6906602164615074  0.6326841702450607  1.0000
  C   C15       1.0  0.176405737815285  0.5588802220418323  0.9854215586307675  1.0000
  C   C16       1.0  0.259966615482806  0.6058958418706004  0.0550459496758291  1.0000
  C   C17       1.0  0.338651522277682  0.6642507990461974  0.9750882758088714  1.0000
  C   C18       1.0  0.334694542476029  0.676517843640051  0.8244203219389385  1.0000
  C   C19       1.0  0.25311112250157697  0.6283345679828161  0.7534546444565544  1.0000
  C   C20       1.0  0.17389893604587228  0.5670325248585144  0.8318110973688694  1.0000
  C   C21       1.0  0.42317272676787154  0.7132747501130243  0.04801817976405065  1.0000
  N   N3        1.0  0.4911061287198124  0.7526767879178708  0.10664152652159009  1.0000
  H   H10       1.0  0.9410995561873148  0.5102463765340952  0.09338924911445859  1.0000
  H   H11       1.0  0.3951438623228192  0.7221358852021054  0.7615357698918301  1.0000
  H   H12       1.0  0.2529495918284439  0.6359162187979048  0.6363837792552536  1.0000
  H   H13       1.0  0.016439030729898278  0.528233272967229  0.5544969932029349  1.0000
  Zn  Zn1       1.0  0.06933437403419741  0.5629530163562031  0.4086581929738773  1.0000
  Zn  Zn2       1.0  0.28096102393814393  0.5629590673447371  0.40857377419023266  1.0000
  C   C22       1.0  0.1743311115403945  0.5597466668477316  0.6718302567476722  1.0000
  C   C23       1.0  0.17596660947567355  0.5661672378287765  0.1454018493793119  1.0000
  C   C24       1.0  0.17697465236998403  0.8262826745950209  0.4026475605350781  1.0000
  C   C25       1.0  0.17332298429664394  0.29962949823671026  0.41458462393966444  1.0000
  O   O2        1.0  0.2561304014885024  0.5686088318912532  0.19906066530263478  1.0000
  O   O3        1.0  0.2547870438485864  0.5573085734516157  0.6181069550075817  1.0000
  O   O4        1.0  0.25692064942889536  0.7725397849176978  0.40074002244887647  1.0000
  O   O5        1.0  0.25399672408529117  0.3533776296983388  0.4164274898272637  1.0000
  O   O6        1.0  0.09629860166929394  0.7725344540020336  0.40080447735807284  1.0000
  O   O7        1.0  0.09416500822066864  0.5573049743801606  0.6181713315902464  1.0000
  O   O8        1.0  0.09550837071114104  0.56860516587826  0.1991233092843503  1.0000
  O   O9        1.0  0.09337469291307589  0.3533739544116097  0.4164902418642821  1.0000
