data_image0
_chemical_formula_structural       NC5OC5NC4H8C9H10C7OH5Zn2C4O8
_chemical_formula_sum              "N2 C34 O10 H23 Zn2"
_cell_length_a       19.189071930511275
_cell_length_b       10.297183801781406
_cell_length_c       9.274074313596557
_cell_angle_alpha    86.09469829957582
_cell_angle_beta     90.21172444201244
_cell_angle_gamma    89.98878219536965

_space_group_name_H-M_alt    "P 1"
_space_group_IT_number       1

loop_
  _space_group_symop_operation_xyz
  'x, y, z'

loop_
  _atom_site_type_symbol
  _atom_site_label
  _atom_site_symmetry_multiplicity
  _atom_site_fract_x
  _atom_site_fract_y
  _atom_site_fract_z
  _atom_site_occupancy
  N   N1        1.0  0.6530491820554851  0.40746667138808923  0.4089912382741779  1.0000
  C   C1        1.0  0.598551177757786  0.45341804541704467  0.3886680393092717  1.0000
  C   C2        1.0  0.5307626889657006  0.5105738944803682  0.3633890342294211  1.0000
  C   C3        1.0  0.5208428654212442  0.6065296324978302  0.25078746302833577  1.0000
  C   C4        1.0  0.4549939442956802  0.6621235250982647  0.22637150716068577  1.0000
  C   C5        1.0  0.3984031102493042  0.6216448197294999  0.31305308844724916  1.0000
  O   O1        1.0  0.33337817117556423  0.6808490825280834  0.286121711179671  1.0000
  C   C6        1.0  0.2684608440652329  0.6214496798735831  0.3124270277097374  1.0000
  C   C7        1.0  0.21176269480512394  0.6993569977385714  0.3459698157663984  1.0000
  C   C8        1.0  0.1460143711738168  0.6440570005610081  0.3713296926671146  1.0000
  C   C9        1.0  0.1363029529417844  0.5101163487524449  0.3619197392563387  1.0000
  C   C10       1.0  0.06861784498708741  0.4531659491573241  0.3878583949841121  1.0000
  N   N2        1.0  0.014203007271856702  0.4073798108239979  0.40871240740434533  1.0000
  C   C11       1.0  0.19252367702186285  0.43188186029349723  0.32624919067830205  1.0000
  C   C12       1.0  0.25826323519667327  0.4872217372002645  0.30093772032684596  1.0000
  C   C13       1.0  0.40880861856962486  0.5266078416137491  0.4274502809116245  1.0000
  C   C14       1.0  0.4746487608872152  0.4710104454881947  0.45193435620554184  1.0000
  H   H1        1.0  0.5639552740066373  0.6384437712157354  0.18208412355068027  1.0000
  H   H2        1.0  0.4477855540846258  0.7364126392145987  0.13924804690824355  1.0000
  H   H3        1.0  0.21880972635259088  0.8030251173211926  0.3532153851802345  1.0000
  H   H4        1.0  0.1028170528813336  0.7056781187968468  0.3980489412316892  1.0000
  H   H5        1.0  0.1854666786286403  0.32835148989210206  0.3172557721832736  1.0000
  H   H6        1.0  0.30074397770249134  0.42577589229988577  0.2704298119383477  1.0000
  H   H7        1.0  0.3664104786563055  0.496895716346923  0.49887510961170706  1.0000
  H   H8        1.0  0.4818660617866054  0.3977801664217344  0.5402686102002714  1.0000
  C   C15       1.0  0.8336322820139044  0.02594950229206394  0.4090560273783168  1.0000
  C   C16       1.0  0.831301759193412  0.03446933313508471  0.25739311786768915  1.0000
  C   C17       1.0  0.8301076030098038  0.9222178042685952  0.17969177435707473  1.0000
  C   C18       1.0  0.8312924364226538  0.7992930461412331  0.2568052951116917  1.0000
  C   C19       1.0  0.8336266338466727  0.7888871296324723  0.40866003547912544  1.0000
  C   C20       1.0  0.8347806579443058  0.9026827269463743  0.48379412908438685  1.0000
  C   C21       1.0  0.8275867852067015  0.9408647977786365  0.01565762872303145  1.0000
  C   C22       1.0  0.7866232904554669  0.841448486404852  0.9354577401769384  1.0000
  C   C23       1.0  0.8660067491262009  0.841697140337491  0.9308179123977426  1.0000
  H   H9        1.0  0.8345369242854421  0.35020499059107024  0.46749660591700803  1.0000
  H   H10       1.0  0.8304021951449918  0.12918082319987167  0.19884286720212563  1.0000
  H   H11       1.0  0.8304161624406491  0.7111903357645946  0.1998809748838668  1.0000
  H   H12       1.0  0.8365783559537469  0.8953820557591171  0.6008052488539319  1.0000
  H   H13       1.0  0.8380260183760196  0.5620168357077  0.6954708883475975  1.0000
  H   H14       1.0  0.8267771898376649  0.04111447706015169  0.9629341701935337  1.0000
  H   H15       1.0  0.7634983565112359  0.7583963530526011  0.0010658149297799711  1.0000
  H   H16       1.0  0.7618368733063628  0.8814259853528791  0.8335048258971756  1.0000
  H   H17       1.0  0.8911030049001849  0.7587968572610782  0.9936082933269872  1.0000
  H   H18       1.0  0.8876164674362733  0.8818175874838131  0.8261518931630114  1.0000
  C   C24       1.0  0.8327950791823714  0.4036770922305783  0.9856194550877166  1.0000
  C   C25       1.0  0.7720334098868277  0.4420432267604996  0.0555353169971351  1.0000
  C   C26       1.0  0.714703303222581  0.49084842909246196  0.9763720264208926  1.0000
  C   C27       1.0  0.7167938074176915  0.5025856047540669  0.8250843187776016  1.0000
  C   C28       1.0  0.7766145667000345  0.4626513624523673  0.7540301113764194  1.0000
  C   C29       1.0  0.8344638008730663  0.41115949629861914  0.8320966890307515  1.0000
  C   C30       1.0  0.6568489644512144  0.5549637872244754  0.7397127174610842  1.0000
  O   O2        1.0  0.6022395253720964  0.5911714479194305  0.8004423730859389  1.0000
  H   H19       1.0  0.0030680061777665934  0.3705396934675629  0.09229373570720067  1.0000
  H   H20       1.0  0.6689789089131444  0.5205974183894997  0.03379354864028072  1.0000
  H   H21       1.0  0.7774220293260832  0.46894650887394507  0.6368695576490944  1.0000
  H   H22       1.0  0.9489191313092206  0.3841323306944284  0.5545565069555645  1.0000
  H   H23       1.0  0.6593234874688877  0.5628482314813126  0.6228371971704827  1.0000
  Zn  Zn1       1.0  0.757270399862088  0.4074382133289549  0.4089190923047179  1.0000
  Zn  Zn2       1.0  0.9099818301539633  0.4073977858854713  0.4087963430107917  1.0000
  C   C31       1.0  0.8341468786665325  0.40457009269327715  0.672097011422818  1.0000
  C   C32       1.0  0.8331070192203047  0.41026754640038754  0.14561856316232058  1.0000
  C   C33       1.0  0.8336127822426921  0.6446249073650383  0.4029915704424143  1.0000
  C   C34       1.0  0.8336410636974696  0.1702111716899335  0.4147240818348157  1.0000
  O   O3        1.0  0.891164901122147  0.41245835372051104  0.19926914566603915  1.0000
  O   O4        1.0  0.8919934380436122  0.4023476182195944  0.6183528506640568  1.0000
  O   O5        1.0  0.8915613701444541  0.5961949304285552  0.40104830303368266  1.0000
  O   O6        1.0  0.8915969166981298  0.21861104986287883  0.4165735852682526  1.0000
  O   O7        1.0  0.7756552612049903  0.5962249493666907  0.4011418500815636  1.0000
  O   O8        1.0  0.7760873289378923  0.40237919721156556  0.6184463200541528  1.0000
  O   O9        1.0  0.7752587886470228  0.412489872126746  0.19936088225606885  1.0000
  O   O10       1.0  0.7756908044332496  0.21864255993292825  0.4166654299207502  1.0000
