data_image0
_chemical_formula_structural       NC9NC3OH6C9H7C8H9Zn2C4O8
_chemical_formula_sum              "N2 C33 O9 H22 Zn2"
_cell_length_a       15.78231758774541
_cell_length_b       9.275152443626249
_cell_length_c       9.27565708386181
_cell_angle_alpha    85.66173263315568
_cell_angle_beta     89.58874472212383
_cell_angle_gamma    90.20707041648353

_space_group_name_H-M_alt    "P 1"
_space_group_IT_number       1

loop_
  _space_group_symop_operation_xyz
  'x, y, z'

loop_
  _atom_site_type_symbol
  _atom_site_label
  _atom_site_symmetry_multiplicity
  _atom_site_fract_x
  _atom_site_fract_y
  _atom_site_fract_z
  _atom_site_occupancy
  N   N1        1.0  0.8151924186871818  0.5615147674655974  0.4072644492506432  1.0000
  C   C1        1.0  0.7659864813380037  0.47050340318666145  0.43430539513124305  1.0000
  C   C2        1.0  0.7048956783710678  0.3575361798246719  0.4678701707554624  1.0000
  C   C3        1.0  0.7235079655080399  0.21563068511805006  0.509944796199133  1.0000
  C   C4        1.0  0.6462679497580665  0.14685815714216188  0.5304185555424674  1.0000
  C   C5        1.0  0.5852644072489911  0.25188470214120606  0.499324336760153  1.0000
  C   C6        1.0  0.4920292340915462  0.23246742817985483  0.5051750394567438  1.0000
  C   C7        1.0  0.4391660121751169  0.351527229733114  0.4697426662639364  1.0000
  C   C8        1.0  0.35084125239577135  0.3356055718835187  0.4745480502996735  1.0000
  C   C9        1.0  0.2973072382117792  0.4581294325850498  0.43807560061869427  1.0000
  N   N2        1.0  0.25427867571852997  0.5566228014387695  0.4087550275412797  1.0000
  C   C10       1.0  0.31469710332906387  0.2004469203822998  0.5148407989634882  1.0000
  C   C11       1.0  0.3666311915321612  0.08163329674041939  0.5502047529243081  1.0000
  C   C12       1.0  0.45476704703685006  0.09711755377732033  0.5455299687432265  1.0000
  O   O1        1.0  0.6226443544716922  0.3763542481971931  0.4623654699778941  1.0000
  H   H1        1.0  0.7856144592352191  0.16777476837002347  0.5240774281709761  1.0000
  H   H2        1.0  0.6366987616789642  0.033777462320046414  0.5639636195105744  1.0000
  H   H3        1.0  0.46655083324357427  0.456704598978038  0.4383825225302356  1.0000
  H   H4        1.0  0.24648065245927028  0.18696209133934766  0.518908353542723  1.0000
  H   H5        1.0  0.3385213804400836  0.9771749770182138  0.5813509726144641  1.0000
  H   H6        1.0  0.49315634757870885  0.0030088441592910358  0.5735498677910484  1.0000
  C   C13       1.0  0.03223277523888979  0.13547194649933147  0.40947293897951975  1.0000
  C   C14       1.0  0.002289428462098673  0.2179158093522049  0.2869049674654187  1.0000
  C   C15       1.0  0.9802332960674206  0.15207927434246882  0.16207089545917208  1.0000
  C   C16       1.0  0.9877767787060865  0.0026288226532495984  0.15733343279864842  1.0000
  C   C17       1.0  0.016068580596141805  0.9185098960859073  0.2788607987477598  1.0000
  C   C18       1.0  0.037246281256599685  0.9826545517075146  0.4065590137335462  1.0000
  C   C19       1.0  0.9654769831131309  0.9350640462290508  0.028061735786799817  1.0000
  C   C20       1.0  0.946806165587666  0.8784609508838632  0.9198169638955909  1.0000
  C   C21       1.0  0.9241528313011735  0.8097711015169887  0.7884809186522195  1.0000
  H   H7        1.0  0.15251673128101118  0.21726227145015645  0.6977746140549488  1.0000
  H   H8        1.0  0.9978286602385423  0.33448066414906075  0.286436382955227  1.0000
  H   H9        1.0  0.9580539087636859  0.21808651977007631  0.06863384124386007  1.0000
  H   H10       1.0  0.11549823390129993  0.687494907369946  0.6037340393645363  1.0000
  H   H11       1.0  0.9395732665544442  0.6929466545825773  0.8020003986502511  1.0000
  H   H12       1.0  0.8552939455068236  0.823019454667767  0.768512521995361  1.0000
  H   H13       1.0  0.9604058217651846  0.8612363800794174  0.6952948617941273  1.0000
  C   C22       1.0  0.03688481293230228  0.5568646743702448  0.9847109205790168  1.0000
  C   C23       1.0  0.08142409403316099  0.6663356292055032  0.04942207911355888  1.0000
  C   C24       1.0  0.1185187125612659  0.7820637839361073  0.9654076400040488  1.0000
  C   C25       1.0  0.11232568192375657  0.7873228605493474  0.8147297756867045  1.0000
  C   C26       1.0  0.06962017235490148  0.6784773554365036  0.7485700040333136  1.0000
  C   C27       1.0  0.03259423248333501  0.5612617737382541  0.8313210960725566  1.0000
  C   C28       1.0  0.16700891961807363  0.8972055073133959  0.03637195908876145  1.0000
  C   C29       1.0  0.25982851059869927  0.8550071595055919  0.05467406801441044  1.0000
  H   H14       1.0  0.08578892594313542  0.663612503173812  0.16617117432420003  1.0000
  H   H15       1.0  0.14141074480239868  0.8751685834203826  0.7481372658020509  1.0000
  H   H16       1.0  0.06747314982471297  0.6841230899020037  0.6315689472767376  1.0000
  H   H17       1.0  0.9315744914938506  0.3961289663024916  0.5637189228073911  1.0000
  H   H18       1.0  0.16298862799801395  0.0019771481142547495  0.9701557126739511  1.0000
  H   H19       1.0  0.1389256698020771  0.9138563264825279  0.1440966010719098  1.0000
  H   H20       1.0  0.2652527500796451  0.7523236151739884  0.12379567936387724  1.0000
  H   H21       1.0  0.2895658477929868  0.841399115079726  0.9476461329546897  1.0000
  H   H22       1.0  0.294412984678744  0.9412182011064679  0.10705850956489416  1.0000
  Zn  Zn1       1.0  0.9419031590816666  0.5600992418547903  0.40770292866423974  1.0000
  Zn  Zn2       1.0  0.12756777744061032  0.5580266151315243  0.40832837233416  1.0000
  C   C30       1.0  0.033369348821719685  0.5546841159699263  0.671313380824353  1.0000
  C   C31       1.0  0.0361036252062259  0.5634435391775541  0.14471806222670902  1.0000
  C   C32       1.0  0.03632336678061133  0.8224891921000125  0.4013655772736593  1.0000
  C   C33       1.0  0.03314953324744363  0.29563673108333915  0.41466594837714954  1.0000
  O   O2        1.0  0.10630016929546637  0.5648586221725267  0.1986552949053002  1.0000
  O   O3        1.0  0.10408794974322051  0.5516948668896855  0.6178504342073736  1.0000
  O   O4        1.0  0.10647239918975798  0.7679508711100802  0.3998656645561842  1.0000
  O   O5        1.0  0.10391565710299216  0.3486026284169257  0.41663995622537686  1.0000
  O   O6        1.0  0.9655552160611102  0.7695232292782057  0.3993913445520023  1.0000
  O   O7        1.0  0.9631707772562901  0.5532689577307566  0.6173760313824246  1.0000
  O   O8        1.0  0.9653830053506514  0.5664326537446016  0.198179159157718  1.0000
  O   O9        1.0  0.9629984925459399  0.35017665023302413  0.41616392858788687  1.0000
