data_image0
_chemical_formula_structural       NC9NC3OH6C7OCH10C7F3H5Zn2C4O8
_chemical_formula_sum              "N2 C31 O10 H21 F3 Zn2"
_cell_length_a       15.78231758774541
_cell_length_b       10.30083208314754
_cell_length_c       9.272721663655245
_cell_angle_alpha    85.8570081302309
_cell_angle_beta     90.60221336655935
_cell_angle_gamma    89.62603918792362

_space_group_name_H-M_alt    "P 1"
_space_group_IT_number       1

loop_
  _space_group_symop_operation_xyz
  'x, y, z'

loop_
  _atom_site_type_symbol
  _atom_site_label
  _atom_site_symmetry_multiplicity
  _atom_site_fract_x
  _atom_site_fract_y
  _atom_site_fract_z
  _atom_site_occupancy
  N   N1        1.0  0.7893613240925192  0.4053367502756675  0.41158242660221034  1.0000
  C   C1        1.0  0.7409770556161003  0.32341182675188884  0.43835024400179995  1.0000
  C   C2        1.0  0.6809061474753507  0.22172308492061243  0.4715760009243131  1.0000
  C   C3        1.0  0.700798673376881  0.09398520442520164  0.5132247340784526  1.0000
  C   C4        1.0  0.6241799690483154  0.03207883445267322  0.533492117668743  1.0000
  C   C5        1.0  0.5622293781993871  0.12661971103671932  0.5027131236062281  1.0000
  C   C6        1.0  0.46917035543970614  0.10914104927512883  0.5085055809324244  1.0000
  C   C7        1.0  0.4152316370794933  0.21631408108193972  0.4734304917737089  1.0000
  C   C8        1.0  0.32705139877640554  0.20198203660291636  0.47818811872251304  1.0000
  C   C9        1.0  0.27241050115877574  0.31227327830903473  0.4420833453070707  1.0000
  N   N2        1.0  0.22849213238101632  0.40093320010060335  0.41305833602131403  1.0000
  C   C10       1.0  0.29212889172920187  0.08031745939610932  0.5180752952700676  1.0000
  C   C11       1.0  0.3451363029393262  0.9733660286264015  0.5530827055267802  1.0000
  C   C12       1.0  0.43313159257327105  0.9873043419048209  0.5484543659856482  1.0000
  O   O1        1.0  0.598485828913969  0.23866240636685188  0.466127802066754  1.0000
  H   H1        1.0  0.763336324593368  0.0509071307564186  0.5272137205735005  1.0000
  H   H2        1.0  0.6156311448903096  0.9302879367949431  0.5666978049766569  1.0000
  H   H3        1.0  0.44166574972694006  0.3109906692516904  0.44238595326653707  1.0000
  H   H4        1.0  0.22403481862239538  0.06817895091057746  0.5221024012720559  1.0000
  H   H5        1.0  0.3179707056049342  0.879336701062736  0.5839154777924531  1.0000
  H   H6        1.0  0.472371135426542  0.9025913219328437  0.5761918604449996  1.0000
  C   C13       1.0  0.008955226896291794  0.021798711513945527  0.41247177719890504  1.0000
  C   C14       1.0  0.9845933332083228  0.03072769600068992  0.26597281630273395  1.0000
  C   C15       1.0  0.9713397382925577  0.9180886019020743  0.19263684374528744  1.0000
  C   C16       1.0  0.9845301490857197  0.7954674945786157  0.26559161727326686  1.0000
  C   C17       1.0  0.008906408402401299  0.7844612420717796  0.4121814943941253  1.0000
  C   C18       1.0  0.020777660009885904  0.898163935853353  0.4848434257006009  1.0000
  C   C19       1.0  0.9476968499706111  0.928809950365707  0.034833061682681736  1.0000
  O   O2        1.0  0.02251939171774107  0.9335640471827812  0.9526527176537569  1.0000
  C   C20       1.0  0.001176130702317036  0.9436662294387684  0.804229063653255  1.0000
  H   H7        1.0  0.019246225001072537  0.3457958304695603  0.46815437012395256  1.0000
  H   H8        1.0  0.9758436462905064  0.12521306391482567  0.2082983767125519  1.0000
  H   H9        1.0  0.9757363162326304  0.7088045866781516  0.2076554819878258  1.0000
  H   H10       1.0  0.03957378333888051  0.8905145680077076  0.5978255566193558  1.0000
  H   H11       1.0  0.05581739684719934  0.5564677294511745  0.6882755805441246  1.0000
  H   H12       1.0  0.908557461028183  0.018353369127760418  0.010595634470479624  1.0000
  H   H13       1.0  0.9085897291497158  0.8432619297825548  0.010265105433481912  1.0000
  H   H14       1.0  0.06053321161930647  0.9472930981761388  0.7410930429925187  1.0000
  H   H15       1.0  0.9649252840676744  0.034787854926443096  0.7740371325488602  1.0000
  H   H16       1.0  0.9649381170184063  0.8573039287408247  0.7736798522879442  1.0000
  C   C21       1.0  0.006689002286675896  0.40104625260125815  0.9888766638354286  1.0000
  C   C22       1.0  0.042758754346750694  0.2944686340181968  0.07176063849750669  1.0000
  C   C23       1.0  0.08625470674126373  0.19554074676015773  0.006039290303529347  1.0000
  C   C24       1.0  0.09108488234537027  0.2014721095196792  0.8549034304613521  1.0000
  C   C25       1.0  0.054513123417779336  0.3053511073968755  0.771050495180555  1.0000
  C   C26       1.0  0.011172625139427959  0.4052137232571116  0.8357765584668844  1.0000
  C   C27       1.0  0.1225254804471691  0.08037299988815994  0.09655222466358038  1.0000
  F   F1        1.0  0.15105888660926234  0.11782834210980764  0.2288667151965016  1.0000
  F   F2        1.0  0.1900716048713328  0.02598294230598586  0.027679761548539357  1.0000
  F   F3        1.0  0.060322842531191016  0.987525197611928  0.11941443326183789  1.0000
  H   H17       1.0  0.9529583287770989  0.7108123622621274  0.06479782926052224  1.0000
  H   H18       1.0  0.03852811718713257  0.2898976164666789  0.18859380822179087  1.0000
  H   H19       1.0  0.12240863959197186  0.12487522976995268  0.8011298683794958  1.0000
  H   H20       1.0  0.058144038002569925  0.3057300189825398  0.6544079230074518  1.0000
  H   H21       1.0  0.8591000521479794  0.625763394023104  0.7138912788407836  1.0000
  Zn  Zn1       1.0  0.9160850302429393  0.4040625530801625  0.41201666381081425  1.0000
  Zn  Zn2       1.0  0.10176846082269253  0.4021968567388338  0.4126358905930614  1.0000
  C   C28       1.0  0.010323548103495334  0.3992527495274027  0.6756963245297485  1.0000
  C   C29       1.0  0.007531971263771804  0.40700827909396464  0.1489563775437377  1.0000
  C   C30       1.0  0.008880831021441216  0.6402735591981099  0.4064901163376624  1.0000
  C   C31       1.0  0.008974625491978474  0.1659859102692276  0.4181626629969735  1.0000
  O   O3        1.0  0.07828077392362864  0.40829550235407486  0.2029155873037234  1.0000
  O   O4        1.0  0.08050417069671217  0.3965485242322702  0.6222066788454699  1.0000
  O   O5        1.0  0.07933821643129191  0.5911758930882198  0.4048207573699325  1.0000
  O   O6        1.0  0.0794466642548794  0.21366814289215103  0.4203014004452328  1.0000
  O   O7        1.0  0.9384067634460703  0.5925912675648919  0.40435115373974573  1.0000
  O   O8        1.0  0.9395727172006554  0.39796545850101933  0.6217369977352369  1.0000
  O   O9        1.0  0.9373493113084415  0.40971238283897815  0.20244417252200078  1.0000
  O   O10       1.0  0.9385152022091793  0.21508501462107568  0.4198300937786412  1.0000
