data_image0
_chemical_formula_structural       NC7OC8NH10C12H9C12H9Zn2C4O8
_chemical_formula_sum              "N2 C43 O9 H28 Zn2"
_cell_length_a       17.484556032080143
_cell_length_b       13.024581838241813
_cell_length_c       13.024585202197208
_cell_angle_alpha    84.12653577963174
_cell_angle_beta     94.64658029263958
_cell_angle_gamma    93.80452094823985

_space_group_name_H-M_alt    "P 1"
_space_group_IT_number       1

loop_
  _space_group_symop_operation_xyz
  'x, y, z'

loop_
  _atom_site_type_symbol
  _atom_site_label
  _atom_site_symmetry_multiplicity
  _atom_site_fract_x
  _atom_site_fract_y
  _atom_site_fract_z
  _atom_site_occupancy
  N   N1        1.0  0.7149867699316321  0.12422933387724663  0.8475919635401601  1.0000
  C   C1        1.0  0.666164589619466  0.0611871204583254  0.8619389817713898  1.0000
  C   C2        1.0  0.6054348816485119  0.9827719766126897  0.8797850648185801  1.0000
  C   C3        1.0  0.5938829303576121  0.901465846724535  0.8167421037077346  1.0000
  C   C4        1.0  0.5348662234501272  0.8253553395822222  0.8341026959477242  1.0000
  C   C5        1.0  0.4867335180810161  0.8295934574713411  0.91424828837624  1.0000
  C   C6        1.0  0.49878345094083587  0.9113794024136479  0.9777429906934563  1.0000
  C   C7        1.0  0.5578054583655078  0.9875097237562828  0.9603314866783984  1.0000
  O   O1        1.0  0.4281973428528385  0.7513319626177573  0.9279498036484658  1.0000
  C   C8        1.0  0.3707689981083087  0.7483186362055095  0.00035347574760502803  1.0000
  C   C9        1.0  0.3147873644506681  0.8308385320756076  0.968535144393539  1.0000
  C   C10       1.0  0.29684805396898095  0.898338001720535  0.03940029177224614  1.0000
  C   C11       1.0  0.24441259149429262  0.9743397028027618  0.009586582281227104  1.0000
  C   C12       1.0  0.20903709159309364  0.9831056712381823  0.9089554732171387  1.0000
  C   C13       1.0  0.22613107261779392  0.915348137971625  0.8383018407599072  1.0000
  C   C14       1.0  0.27856695613046245  0.8393415871587199  0.8680355208962626  1.0000
  C   C15       1.0  0.155075321407997  0.06137335669837939  0.878312689321186  1.0000
  N   N2        1.0  0.1116937590129936  0.12429850791268304  0.8536765635414592  1.0000
  H   H1        1.0  0.6304179741664822  0.896909113442265  0.7542219603210212  1.0000
  H   H2        1.0  0.526317494450276  0.7628369153749551  0.7848461916261043  1.0000
  H   H3        1.0  0.4632391413007475  0.916832573971694  0.04081702002463716  1.0000
  H   H4        1.0  0.5663359747796228  0.049976095916904  0.009749913571207587  1.0000
  H   H5        1.0  0.3385915946345093  0.6718578494013461  0.0017441251062969571  1.0000
  H   H6        1.0  0.39841556455240157  0.7549125491161258  0.07950306849782951  1.0000
  H   H7        1.0  0.3235674488635937  0.8924434493171349  0.11757997651607724  1.0000
  H   H8        1.0  0.2314174457122664  0.026137253474964203  0.0649821180542668  1.0000
  H   H9        1.0  0.1989012645246188  0.9211950579086714  0.7603545986268421  1.0000
  H   H10       1.0  0.29110231443453133  0.7872566758608907  0.8127019132309553  1.0000
  C   C16       1.0  0.8990290101332513  0.8213866495164818  0.8580127700775527  1.0000
  C   C17       1.0  0.8612835171417639  0.7585831973907967  0.7856581580979375  1.0000
  C   C18       1.0  0.8861152972616966  0.6602576648044521  0.7768592693180734  1.0000
  C   C19       1.0  0.9487075825710554  0.6226961723862819  0.8407046878448106  1.0000
  C   C20       1.0  0.9869754021909602  0.6855347380801703  0.9122099113373613  1.0000
  C   C21       1.0  0.9622027199083522  0.7838918762251619  0.9210765757314515  1.0000
  C   C22       1.0  0.9758302013882454  0.5192223489890442  0.8302660780803495  1.0000
  C   C23       1.0  0.05124105303619687  0.5134477426934936  0.8020096820105969  1.0000
  C   C24       1.0  0.0785056277976881  0.41895489318462953  0.7846314959345471  1.0000
  C   C25       1.0  0.030887463909786025  0.32899129508101166  0.794982981793972  1.0000
  C   C26       1.0  0.9561005489747311  0.3328929841499774  0.824008903667159  1.0000
  C   C27       1.0  0.9276589504294412  0.42713330951653883  0.8432650245921862  1.0000
  H   H11       1.0  0.8933739243739263  0.05859685693426717  0.946684522093949  1.0000
  H   H12       1.0  0.8126581723674964  0.7854579261528379  0.7356618787789212  1.0000
  H   H13       1.0  0.8566188162910766  0.6133710399612665  0.7201435081766013  1.0000
  H   H14       1.0  0.03575849147079138  0.6580666745779216  0.9615686530881101  1.0000
  H   H15       1.0  0.992593558533898  0.8305063942941286  0.9772971531418155  1.0000
  H   H16       1.0  0.0886765717852085  0.5828174283765782  0.7915862598493956  1.0000
  H   H17       1.0  0.13652264843446638  0.41562568777273884  0.7623130195216234  1.0000
  H   H18       1.0  0.920869292218593  0.26144291793284  0.8332635552815195  1.0000
  H   H19       1.0  0.7421913938200558  0.3422197316275156  0.8831079700385898  1.0000
  C   C28       1.0  0.8975954136287249  0.12301937599473223  0.5482094881168961  1.0000
  C   C29       1.0  0.8845682823603449  0.20543474163013434  0.4715135502366027  1.0000
  C   C30       1.0  0.9106474043971333  0.20386021353015904  0.37307303865805136  1.0000
  C   C31       1.0  0.9496779311905941  0.1195938755140258  0.3493373010719043  1.0000
  C   C32       1.0  0.9634599369545244  0.03776548728993955  0.4259569180001084  1.0000
  C   C33       1.0  0.9374152607795428  0.03925346620225456  0.5244433916657193  1.0000
  C   C34       1.0  0.9784200413705562  0.11864699173299155  0.24560193769983818  1.0000
  C   C35       1.0  0.058095717418424  0.11529829053215468  0.23922608530781148  1.0000
  C   C36       1.0  0.08912572506684935  0.12077296048410813  0.1433405676044839  1.0000
  C   C37       1.0  0.04114012455396954  0.12987978275348322  0.05252745273560677  1.0000
  C   C38       1.0  0.9618121795670711  0.1322642122117217  0.05719019090297017  1.0000
  C   C39       1.0  0.9290925011801896  0.12550058511715986  0.15306825048975736  1.0000
  H   H20       1.0  0.864750487920738  0.04247992613508365  0.7996672461863492  1.0000
  H   H21       1.0  0.8543703967565879  0.27126871124372975  0.4875824725511133  1.0000
  H   H22       1.0  0.9005212005132354  0.26842645694528455  0.31530149316266876  1.0000
  H   H23       1.0  0.9940039435555253  0.9724645024455019  0.40919858184801206  1.0000
  H   H24       1.0  0.9485361265340924  0.9747969155235208  0.5819093008762237  1.0000
  H   H25       1.0  0.0965296644082152  0.11027223585426073  0.30888860832740656  1.0000
  H   H26       1.0  0.1506037304636012  0.11873770504847861  0.1394536069846002  1.0000
  H   H27       1.0  0.9258135816244191  0.1375123258646331  0.9853734851826419  1.0000
  H   H28       1.0  0.742341252111238  0.161413849735353  0.06476814171903089  1.0000
  Zn  Zn1       1.0  0.8294680203834912  0.12424656436981718  0.8493538705594035  1.0000
  Zn  Zn2       1.0  0.9972125469485129  0.12427289039614141  0.8519233266571401  1.0000
  C   C40       1.0  0.9229429922458308  0.12092272188718756  0.0388370286584363  1.0000
  C   C41       1.0  0.9037394736224851  0.12759803494722105  0.6624402660150439  1.0000
  C   C42       1.0  0.9220296215867402  0.3126174568956515  0.8419486194469898  1.0000
  C   C43       1.0  0.9046527313334201  0.9359020609868411  0.8593287594259699  1.0000
  O   O2        1.0  0.9694594372360033  0.12914016566385997  0.7017523633372394  1.0000
  O   O3        1.0  0.9845371907380391  0.11939979271880419  0.0014748115410602159  1.0000
  O   O4        1.0  0.9837988300007681  0.2741957198070828  0.842485988829835  1.0000
  O   O5        1.0  0.9701977370610814  0.9743442456279869  0.8607411077729574  1.0000
  O   O6        1.0  0.8564827730277196  0.274175209130088  0.8405360885613123  1.0000
  O   O7        1.0  0.8572211894699425  0.11938052098584208  0.999524826190785  1.0000
  O   O8        1.0  0.8421433698423274  0.1291208529100498  0.6998011406562952  1.0000
  O   O9        1.0  0.8428816733363951  0.9743249258138882  0.8587899624852467  1.0000
