data_image0
_chemical_formula_structural       NC9NC3SH6C7F3H5C8NH11Zn2C4O8
_chemical_formula_sum              "N3 C31 S1 H22 F3 Zn2 O8"
_cell_length_a       16.77567553997237
_cell_length_b       9.272718291674593
_cell_length_c       9.27565297233854
_cell_angle_alpha    86.37424905988952
_cell_angle_beta     90.8258093540976
_cell_angle_gamma    90.46558260785916

_space_group_name_H-M_alt    "P 1"
_space_group_IT_number       1

loop_
  _space_group_symop_operation_xyz
  'x, y, z'

loop_
  _atom_site_type_symbol
  _atom_site_label
  _atom_site_symmetry_multiplicity
  _atom_site_fract_x
  _atom_site_fract_y
  _atom_site_fract_z
  _atom_site_occupancy
  N   N1        1.0  0.7376054476778726  0.587672496443749  0.42975757357819466  1.0000
  C   C1        1.0  0.6828277345794168  0.6427469301068396  0.4763510056877913  1.0000
  C   C2        1.0  0.6148477931587247  0.7110906577124108  0.534169894397994  1.0000
  C   C3        1.0  0.6170276679050718  0.8095999435213924  0.6404261108066522  1.0000
  C   C4        1.0  0.5413412184612857  0.8580987573986331  0.6757724530893388  1.0000
  C   C5        1.0  0.4792528712711117  0.7975669420193634  0.5969327733406197  1.0000
  C   C6        1.0  0.3926953430554528  0.8265839438492599  0.6091982964080306  1.0000
  C   C7        1.0  0.3359659576127737  0.7377905942961516  0.5438258174401895  1.0000
  C   C8        1.0  0.2542622652250519  0.764567755667401  0.5549014683118121  1.0000
  C   C9        1.0  0.1968709332206665  0.6728013989049947  0.48795756406806845  1.0000
  N   N2        1.0  0.1507453136156261  0.5990344004940538  0.4341445529287722  1.0000
  C   C10       1.0  0.22845597336238166  0.8804851105675378  0.6311734114010712  1.0000
  C   C11       1.0  0.2840908504771368  0.9694512536380291  0.6960348590721508  1.0000
  C   C12       1.0  0.3656366218082602  0.9430795726842075  0.6852892865581892  1.0000
  S   S1        1.0  0.5198273695954917  0.6834720282791511  0.48383565301445847  1.0000
  H   H1        1.0  0.671499800614963  0.8453161968282966  0.691499134433994  1.0000
  H   H2        1.0  0.5331119250818476  0.934033004991278  0.7579146437687754  1.0000
  H   H3        1.0  0.3548853117720588  0.6471428639954915  0.4849190123003422  1.0000
  H   H4        1.0  0.16542183763617493  0.9021480058448941  0.6403159844537192  1.0000
  H   H5        1.0  0.26399212161619956  0.05941770962842564  0.7545840827925372  1.0000
  H   H6        1.0  0.40699406847428343  0.015177354872818688  0.7355194757495345  1.0000
  C   C13       1.0  0.9459020093411403  0.1699969849309189  0.42878532624326415  1.0000
  C   C14       1.0  0.8968939658642877  0.24929610577961128  0.32865165560743637  1.0000
  C   C15       1.0  0.8422926713452498  0.179673099094819  0.2398317881070888  1.0000
  C   C16       1.0  0.8387998644108189  0.028344686559004916  0.24822169982970932  1.0000
  C   C17       1.0  0.8878545069991391  0.9480669371470678  0.3452368026765178  1.0000
  C   C18       1.0  0.9424564633510911  0.0166991320021368  0.4351293453311891  1.0000
  C   C19       1.0  0.7917964151745718  0.26646733720660887  0.13051225723469284  1.0000
  F   F1        1.0  0.7715306569519876  0.39767932447904264  0.18268249444369533  1.0000
  F   F2        1.0  0.7220840329517327  0.1929484598457623  0.09965718809993085  1.0000
  F   F3        1.0  0.8342744696102777  0.2915738950749378  0.004701935786686432  1.0000
  H   H7        1.0  0.04185169517792664  0.2534078073756685  0.7408791026968669  1.0000
  H   H8        1.0  0.9000480256601385  0.36630684250471296  0.32197641204189864  1.0000
  H   H9        1.0  0.798665013718624  0.9716850881486118  0.17848128671032068  1.0000
  H   H10       1.0  0.8846089653829141  0.8312215512868617  0.3471416772247333  1.0000
  H   H11       1.0  0.11431234696322078  0.9066710906610189  0.6104405018526557  1.0000
  C   C20       1.0  0.9424159736426703  0.5904894419120426  0.008646678432794763  1.0000
  C   C21       1.0  0.8903245880594912  0.6833707753066737  0.07495131069468397  1.0000
  C   C22       1.0  0.8444934475835429  0.7848377859450371  0.992538640870845  1.0000
  C   C23       1.0  0.8496825171728265  0.7920049537881853  0.8418612947770825  1.0000
  C   C24       1.0  0.9000183995633294  0.6991395228963488  0.7741304275247191  1.0000
  C   C25       1.0  0.9459425369564924  0.5962066926784022  0.8552679383310537  1.0000
  C   C26       1.0  0.788140477731117  0.8819290031222817  0.06522722280973059  1.0000
  C   C27       1.0  0.7064600259881969  0.8092352607521849  0.08461642113575228  1.0000
  N   N3        1.0  0.6519950672309364  0.9051752724734576  0.15298015148164779  1.0000
  H   H12       1.0  0.0017196713539124886  0.3779017026384499  0.3042695248914189  1.0000
  H   H13       1.0  0.8865489244426394  0.6792554873200332  0.19170852257441484  1.0000
  H   H14       1.0  0.8140177210546192  0.8686858983754657  0.776484556282651  1.0000
  H   H15       1.0  0.9014324787890646  0.7053707695769558  0.657172228665126  1.0000
  H   H16       1.0  0.05580459480001878  0.46717060463794424  0.5849593532538888  1.0000
  H   H17       1.0  0.8130029871294766  0.9079473650764733  0.1723964279208261  1.0000
  H   H18       1.0  0.7813348064979686  0.985837313686745  0.9996298104938739  1.0000
  H   H19       1.0  0.6816347598079269  0.7843763929816554  0.9770391861388087  1.0000
  H   H20       1.0  0.7125076313883972  0.7061356227217954  0.1520952097110846  1.0000
  H   H21       1.0  0.5958858700081655  0.8552139347872845  0.15642234198294447  1.0000
  H   H22       1.0  0.6706331304253441  0.9129044807978924  0.26035236946196405  1.0000
  Zn  Zn1       1.0  0.8568287419239169  0.5909475037034565  0.4310318654484304  1.0000
  Zn  Zn2       1.0  0.0315221115736799  0.5957477124149938  0.43288201096988715  1.0000
  C   C28       1.0  0.9452975131533409  0.5893826653191891  0.6951953477055037  1.0000
  C   C29       1.0  0.9430552411774967  0.5973144232000795  0.16871870403032907  1.0000
  C   C30       1.0  0.9430797250938892  0.8566155042630919  0.4281857893263352  1.0000
  C   C31       1.0  0.945272976994919  0.3300798510494492  0.43572832565365816  1.0000
  O   O1        1.0  0.009565034156215905  0.6014203139323724  0.22314241155546585  1.0000
  O   O2        1.0  0.01137594830666222  0.5889189315401098  0.6421754347124655  1.0000
  O   O3        1.0  0.00958416895309777  0.8047128141730803  0.4265633289508588  1.0000
  O   O4        1.0  0.01135675340658504  0.3856264392445772  0.4387544086793951  1.0000
  O   O5        1.0  0.8769940404767007  0.8010687752373159  0.4251594670999881  1.0000
  O   O6        1.0  0.8787858124579825  0.5852766241745158  0.6407715089784993  1.0000
  O   O7        1.0  0.8769748913458162  0.5977779446259465  0.2217367523271627  1.0000
  O   O8        1.0  0.8787666110850691  0.38198406035641796  0.43734885744983565  1.0000
