data_image0
_chemical_formula_structural       NC5NC3F3CH3C6NCH9C7NH4Zn2C4O8
_chemical_formula_sum              "N4 C27 F3 H16 Zn2 O8"
_cell_length_a       13.85151926108384
_cell_length_b       9.273386996610926
_cell_length_c       9.275157849593905
_cell_angle_alpha    86.01375275156522
_cell_angle_beta     89.74088631582597
_cell_angle_gamma    89.3985898819531

_space_group_name_H-M_alt    "P 1"
_space_group_IT_number       1

loop_
  _space_group_symop_operation_xyz
  'x, y, z'

loop_
  _atom_site_type_symbol
  _atom_site_label
  _atom_site_symmetry_multiplicity
  _atom_site_fract_x
  _atom_site_fract_y
  _atom_site_fract_z
  _atom_site_occupancy
  N   N1        1.0  0.9029163764436079  0.5635318645003551  0.4077985947907117  1.0000
  C   C1        1.0  0.8304573144685635  0.5550504431888859  0.47026011051278377  1.0000
  C   C2        1.0  0.7403125335068318  0.544498395538424  0.5479711715485973  1.0000
  C   C3        1.0  0.6529554421858812  0.5529955812427216  0.4724555297154605  1.0000
  C   C4        1.0  0.5652605441573818  0.544498382194893  0.5479711515181818  1.0000
  C   C5        1.0  0.4754380619447023  0.5550504602504496  0.4702602045234585  1.0000
  N   N2        1.0  0.4032381907701307  0.5635318276138996  0.4077987002721206  1.0000
  C   C6        1.0  0.5649199404222294  0.526507366728125  0.6991800473990661  1.0000
  C   C7        1.0  0.6523046072940639  0.514831399209231  0.7759626434858573  1.0000
  C   C8        1.0  0.6519095265244288  0.5008190630846934  0.9389570325114416  1.0000
  F   F1        1.0  0.7332097814381688  0.42647481258836906  0.9906654320833972  1.0000
  F   F2        1.0  0.5713409666850854  0.42647478293451596  0.9906655313986361  1.0000
  F   F3        1.0  0.6507953903053365  0.6371797591646955  0.9904363555496803  1.0000
  C   C9        1.0  0.7399902678715657  0.5265072716298038  0.699180067166453  1.0000
  H   H1        1.0  0.6532109399838036  0.5670851207531205  0.3553839758332664  1.0000
  H   H2        1.0  0.49665463779757135  0.5218828633461561  0.7568221551200132  1.0000
  H   H3        1.0  0.8079713920120994  0.5218827820230314  0.7568221142253844  1.0000
  C   C10       1.0  0.1560484457462886  0.1398846957833153  0.40850678297267407  1.0000
  C   C11       1.0  0.17340296708761502  0.22210471525043007  0.2782052192551372  1.0000
  C   C12       1.0  0.18166761394085693  0.15634616868194273  0.14789559982073075  1.0000
  C   C13       1.0  0.17270697077743768  0.006013322428901398  0.1445558298393379  1.0000
  C   C14       1.0  0.15705516188332558  0.922826026945783  0.27440475530590347  1.0000
  C   C15       1.0  0.15011536670248948  0.9871680253230994  0.407102971694564  1.0000
  N   N3        1.0  0.18016382516063328  0.9351924269352416  0.011555839305890322  1.0000
  C   C16       1.0  0.19668160570184706  0.011733817039128779  0.8709255609108443  1.0000
  H   H4        1.0  0.1750398891490721  0.4043092472139285  0.6451032425743979  1.0000
  H   H5        1.0  0.17833251428458974  0.3387335718183575  0.2764371856879542  1.0000
  H   H6        1.0  0.19414531638800336  0.22400503330389918  0.050006604717966585  1.0000
  H   H7        1.0  0.15250539404607075  0.8064030509233299  0.2721313378928205  1.0000
  H   H8        1.0  0.18457501748063843  0.8591882920220248  0.7581028901839157  1.0000
  H   H9        1.0  0.17332925240715993  0.822854100198303  0.014544201857628723  1.0000
  H   H10       1.0  0.13691052940731874  0.09006610651494307  0.8458866854246034  1.0000
  H   H11       1.0  0.2665575024785185  0.06928780490328434  0.8711581152392576  1.0000
  H   H12       1.0  0.19937931825564137  0.9334751318689203  0.7856105707198386  1.0000
  C   C17       1.0  0.15439148458391477  0.5594485050078097  0.9846138495514958  1.0000
  C   C18       1.0  0.23727277015343393  0.6064789512641842  0.05423196774175176  1.0000
  C   C19       1.0  0.3151223236468297  0.6648535147739939  0.9742570922699795  1.0000
  C   C20       1.0  0.3109964104823373  0.6771256669359871  0.8235778113211434  1.0000
  C   C21       1.0  0.230108141871664  0.6289270016735629  0.7526200870879838  1.0000
  C   C22       1.0  0.15177237487969894  0.5676041962467198  0.8309959068879662  1.0000
  C   C23       1.0  0.3989357553886192  0.7138930511073007  0.04717947390250354  1.0000
  N   N4        1.0  0.46630029852297294  0.7533076152089477  0.10579677517127761  1.0000
  H   H13       1.0  0.9198367270245827  0.5108064840924349  0.0925320254048394  1.0000
  H   H14       1.0  0.3707930517812503  0.7227590864870101  0.7606794129346355  1.0000
  H   H15       1.0  0.22984145865319547  0.6365116993473892  0.6355430804349536  1.0000
  H   H16       1.0  0.9949020953467506  0.5287969663413958  0.5536536856204668  1.0000
  Zn  Zn1       1.0  0.047298445954667485  0.5635280825428537  0.40780693803210455  1.0000
  Zn  Zn2       1.0  0.2588561498411899  0.5635239556926421  0.4078021266142211  1.0000
  C   C24       1.0  0.15230551034968998  0.5603153969257819  0.671021072299191  1.0000
  C   C25       1.0  0.15385138246562324  0.5667384629034662  0.144588130723448  1.0000
  C   C26       1.0  0.15124966282283014  0.8269581178882206  0.40162560161171146  1.0000
  C   C27       1.0  0.15490716970205232  0.30009400940610176  0.4139836811159403  1.0000
  O   O1        1.0  0.23395520941583559  0.5691771794079588  0.19827514538793833  1.0000
  O   O2        1.0  0.23276909444203445  0.5578724559061585  0.6173299928399347  1.0000
  O   O3        1.0  0.23191539729323554  0.773189839701113  0.3997912417813603  1.0000
  O   O4        1.0  0.23480883463642566  0.3538598048933439  0.41581378837797933  1.0000
  O   O5        1.0  0.0713456889651829  0.7731922333450578  0.39979527626240596  1.0000
  O   O6        1.0  0.07219937421016302  0.5578765820879346  0.6173339476100275  1.0000
  O   O7        1.0  0.07338549496184155  0.5691812386211299  0.19827736761259418  1.0000
  O   O8        1.0  0.07423911991639143  0.3538638548290811  0.4158161186652285  1.0000
