data_image0
_chemical_formula_structural       NC9NC3OH6C6SCH8C7H8Zn2C4O8
_chemical_formula_sum              "N2 C30 O9 H22 S1 Zn2"
_cell_length_a       15.78231758774541
_cell_length_b       10.302809429070853
_cell_length_c       9.274345330872308
_cell_angle_alpha    85.12370620528813
_cell_angle_beta     89.64000707228584
_cell_angle_gamma    89.63144148246117

_space_group_name_H-M_alt    "P 1"
_space_group_IT_number       1

loop_
  _space_group_symop_operation_xyz
  'x, y, z'

loop_
  _atom_site_type_symbol
  _atom_site_label
  _atom_site_symmetry_multiplicity
  _atom_site_fract_x
  _atom_site_fract_y
  _atom_site_fract_z
  _atom_site_occupancy
  N   N1        1.0  0.8050459059709334  0.4237175950770167  0.41082256676539064  1.0000
  C   C1        1.0  0.756393813311713  0.3414958335810081  0.43758100559364554  1.0000
  C   C2        1.0  0.6959904664390574  0.23943863909476432  0.4707951217473878  1.0000
  C   C3        1.0  0.7154662616334513  0.1112389603882096  0.5124291601631104  1.0000
  C   C4        1.0  0.6386447803586458  0.049107810716407574  0.5326894897561882  1.0000
  C   C5        1.0  0.5770021677927502  0.1439899313928581  0.5019214089399142  1.0000
  C   C6        1.0  0.48388520390375034  0.1264469796444403  0.5077119318430452  1.0000
  C   C7        1.0  0.43029741709614705  0.23400901098157267  0.47264906446568  1.0000
  C   C8        1.0  0.34206959037330004  0.21962415668111235  0.47740511173162004  1.0000
  C   C9        1.0  0.2877899247658655  0.3303158238221884  0.4413129082137244  1.0000
  N   N2        1.0  0.2441619539588477  0.41929765282670517  0.4122980023355336  1.0000
  C   C10       1.0  0.3067480188848762  0.09751716459926252  0.5172784704683058  1.0000
  C   C11       1.0  0.3594051765721788  0.9901774816077953  0.5522736881655184  1.0000
  C   C12       1.0  0.4474467611648549  0.004167170557832779  0.5476468837567017  1.0000
  O   O1        1.0  0.6136246755342606  0.25643831889119917  0.4653489325807321  1.0000
  H   H1        1.0  0.7778639307886498  0.06800581628207691  0.5264131449238081  1.0000
  H   H2        1.0  0.6297637084174045  0.9469487192326878  0.565883481021769  1.0000
  H   H3        1.0  0.4570421241247511  0.3290299380708763  0.44161527438105375  1.0000
  H   H4        1.0  0.23861366400491313  0.08533395667646702  0.5213042366349527  1.0000
  H   H5        1.0  0.33193110362197353  0.8958061636687336  0.5830957858748147  1.0000
  H   H6        1.0  0.48640878860215386  0.919146519677328  0.5753747283363109  1.0000
  C   C13       1.0  0.02460796338553073  0.04025413026833635  0.4115665586571242  1.0000
  C   C14       1.0  0.0740615712147274  0.04829510560016903  0.28474572031091827  1.0000
  C   C15       1.0  0.09843628046775521  0.9353204657871772  0.22147944562614288  1.0000
  C   C16       1.0  0.07406146472788183  0.8131439492856535  0.28474564239312916  1.0000
  C   C17       1.0  0.024607929647578505  0.8027509920291931  0.41156655096749994  1.0000
  C   C18       1.0  0.00010098616536979898  0.9169414921441202  0.4743297915887801  1.0000
  S   S1        1.0  0.16177612417874188  0.9470818849092449  0.05961622741966455  1.0000
  C   C19       1.0  0.07049523949339613  0.9571190059231336  0.9402082587785582  1.0000
  H   H7        1.0  0.005943565426655748  0.36453968660143304  0.45932807250055335  1.0000
  H   H8        1.0  0.09370402755957152  0.1420558203233595  0.2343705176641588  1.0000
  H   H9        1.0  0.09370384108921037  0.7267054294869121  0.2343704045758133  1.0000
  H   H10       1.0  0.961941460216646  0.9098333422360142  0.5721374757443134  1.0000
  H   H11       1.0  0.0059421885751576005  0.4715239434129451  0.45932648089643546  1.0000
  H   H12       1.0  0.03152509237469703  0.8679235386132139  0.9593216113648215  1.0000
  H   H13       1.0  0.03152588825275848  0.04415849588158949  0.9593210894228372  1.0000
  H   H14       1.0  0.09288940522035238  0.9656207663941055  0.8262121099725053  1.0000
  C   C20       1.0  0.02652473244313057  0.4244024353470266  0.9877705126486238  1.0000
  C   C21       1.0  0.9760740630233126  0.5163593297744578  0.052860568066582125  1.0000
  C   C22       1.0  0.9205577392276917  0.5979263747791324  0.970640408714441  1.0000
  C   C23       1.0  0.9135314353057025  0.5884463008472796  0.8216725931206468  1.0000
  C   C24       1.0  0.9652959173268048  0.5001265247531854  0.7545826657827979  1.0000
  C   C25       1.0  0.022691129732680154  0.4186026861789014  0.8353625091880121  1.0000
  C   C26       1.0  0.8551339807249404  0.678221737832911  0.7329475686996032  1.0000
  H   H15       1.0  0.12379742349530676  0.14063857134650593  0.11643381349218163  1.0000
  H   H16       1.0  0.9782315108573674  0.5233044812154459  0.16868480914088546  1.0000
  H   H17       1.0  0.8823112703595489  0.6676635196925453  0.023674107469716654  1.0000
  H   H18       1.0  0.9620881775079879  0.49719874409108217  0.6381798300049093  1.0000
  H   H19       1.0  0.09126592099045089  0.23021551402444576  0.571697516150536  1.0000
  H   H20       1.0  0.8897364954036944  0.7680152726963694  0.6939398151579574  1.0000
  H   H21       1.0  0.7995303265213495  0.7052274092976971  0.798335665974384  1.0000
  H   H22       1.0  0.8313298340493311  0.6304827265063944  0.6382659815384693  1.0000
  Zn  Zn1       1.0  0.931765270683888  0.4224385703140268  0.4112566727109681  1.0000
  Zn  Zn2       1.0  0.11744250739538992  0.42056600060426175  0.41187569377010785  1.0000
  C   C27       1.0  0.02341389233818235  0.41452686018539003  0.6751494951677364  1.0000
  C   C28       1.0  0.02579591269000803  0.4284793274385709  0.14798301971993189  1.0000
  C   C29       1.0  0.02462958134972058  0.6586622388699188  0.40581558831891273  1.0000
  C   C30       1.0  0.024580159971887987  0.18434238903650813  0.41731700329904275  1.0000
  O   O2        1.0  0.09601485779026125  0.42913127519598393  0.2019867159187232  1.0000
  O   O3        1.0  0.09411967550218137  0.4124526987634711  0.621615206193517  1.0000
  O   O4        1.0  0.09510040308409708  0.6095951038760048  0.40412616766409415  1.0000
  O   O5        1.0  0.09503406733869356  0.23198888075026458  0.4194756460293647  1.0000
  O   O6        1.0  0.9541736473780905  0.6110156908085052  0.40365672023287935  1.0000
  O   O7        1.0  0.9531929201402625  0.4138748460539872  0.6211456818131822  1.0000
  O   O8        1.0  0.955088110332414  0.4305533891163647  0.20151545643284807  1.0000
  O   O9        1.0  0.954107319388004  0.2334109846443122  0.4190044947434386  1.0000
