data_image0
_chemical_formula_structural       NC5NC3F3CH3C9H10C7NH4Zn2C4O8
_chemical_formula_sum              "N3 C29 F3 H17 Zn2 O8"
_cell_length_a       13.85151926108384
_cell_length_b       10.297183801781406
_cell_length_c       9.275157849593905
_cell_angle_alpha    86.08426286032497
_cell_angle_beta     89.74088631582597
_cell_angle_gamma    89.99762972311773

_space_group_name_H-M_alt    "P 1"
_space_group_IT_number       1

loop_
  _space_group_symop_operation_xyz
  'x, y, z'

loop_
  _atom_site_type_symbol
  _atom_site_label
  _atom_site_symmetry_multiplicity
  _atom_site_fract_x
  _atom_site_fract_y
  _atom_site_fract_z
  _atom_site_occupancy
  N   N1        1.0  0.9138546667085067  0.4078848464584912  0.4096585456140778  1.0000
  C   C1        1.0  0.8413362696791091  0.4002477366483477  0.4721099719820992  1.0000
  C   C2        1.0  0.7511176677977591  0.3907461279357296  0.5498084804821048  1.0000
  C   C3        1.0  0.663820021817053  0.3983974328193989  0.4743029467560722  1.0000
  C   C4        1.0  0.5760656783549593  0.39074611592052505  0.5498084604358162  1.0000
  C   C5        1.0  0.4863170172746086  0.40024775201146096  0.4721100660130697  1.0000
  N   N2        1.0  0.41417648077697644  0.4078848132440216  0.4096586510516076  1.0000
  C   C6        1.0  0.57559921153137  0.37454607636702475  0.7009959545117292  1.0000
  C   C7        1.0  0.6629021946686129  0.3640324321549541  0.7777646610668172  1.0000
  C   C8        1.0  0.6624090851965897  0.35141500097805706  0.940742381256477  1.0000
  F   F1        1.0  0.7431892362289064  0.28447159798669075  0.9923623421767731  1.0000
  F   F2        1.0  0.5813204212683682  0.2844715712848296  0.9923624414567364  1.0000
  F   F3        1.0  0.6622489128258281  0.4742012146922982  0.9923839166516926  1.0000
  C   C9        1.0  0.7506695383154093  0.37454599073558503  0.7009959741659884  1.0000
  H   H1        1.0  0.6641740884234296  0.41108438191244273  0.357248153549633  1.0000
  H   H2        1.0  0.5073015564094767  0.3703819346685435  0.7586325610023732  1.0000
  H   H3        1.0  0.8186183100550783  0.3703818614410022  0.7586325200110033  1.0000
  C   C10       1.0  0.16402294882747695  0.026411054574904787  0.40986277035393726  1.0000
  C   C11       1.0  0.1616676332563134  0.03495523103829945  0.25821360278695105  1.0000
  C   C12       1.0  0.16046071290777442  0.9227161751063196  0.18051929955144  1.0000
  C   C13       1.0  0.16165810263955546  0.799779038334751  0.2576258330687302  1.0000
  C   C14       1.0  0.16401740425304867  0.7893487455866897  0.4094668146722742  1.0000
  C   C15       1.0  0.16518350983554209  0.9031322819087306  0.4845941000899747  1.0000
  C   C16       1.0  0.15791300569587824  0.9413895000775259  0.01650001665088419  1.0000
  C   C17       1.0  0.10162649012344295  0.8419765167488831  0.9362767154126114  1.0000
  C   C18       1.0  0.21162613807724906  0.8422450057083262  0.9316986612463055  1.0000
  H   H4        1.0  0.16493969438257453  0.3506571633161846  0.46829805879105285  1.0000
  H   H5        1.0  0.16075855422888963  0.12967611989091554  0.19966865738280903  1.0000
  H   H6        1.0  0.16077192642702  0.7116854653370026  0.200706669470625  1.0000
  H   H7        1.0  0.16700020137803362  0.8958128274801487  0.6015946173916908  1.0000
  H   H8        1.0  0.16846063635429268  0.5624324095843258  0.6962516739610154  1.0000
  H   H9        1.0  0.15709501413550253  0.041647642907351345  0.9637813357592889  1.0000
  H   H10       1.0  0.06921287824715638  0.7589080533439674  0.00186021047390406  1.0000
  H   H11       1.0  0.06787594692851218  0.8819648027398481  0.8343151091440952  1.0000
  H   H12       1.0  0.2460314030526125  0.7593404411696877  0.9945019865606218  1.0000
  H   H13       1.0  0.24216555226483805  0.8823878328155985  0.8270600541152646  1.0000
  C   C19       1.0  0.165301208132395  0.40420797866786623  0.9864689428800956  1.0000
  C   C20       1.0  0.24851151332992436  0.44655662157684217  0.05614300768661341  1.0000
  C   C21       1.0  0.3267694485993837  0.4991200935789639  0.9762375735993946  1.0000
  C   C22       1.0  0.32272939000912215  0.5101705732363284  0.8255728913933393  1.0000
  C   C23       1.0  0.2415039290437606  0.466770005596361  0.7545578308505227  1.0000
  C   C24       1.0  0.1627391547121653  0.4115517842968772  0.8328607020876819  1.0000
  C   C25       1.0  0.4109259553337905  0.5432778249617369  0.04921829182745108  1.0000
  N   N3        1.0  0.47856623825483935  0.5787687342219765  0.10788247998904632  1.0000
  H   H14       1.0  0.9304061565528876  0.36040819069887764  0.09432925501546463  1.0000
  H   H15       1.0  0.38284527749684827  0.5512612611440539  0.7627287777439666  1.0000
  H   H16       1.0  0.2412903075035422  0.4735996591278302  0.6374898468244083  1.0000
  H   H17       1.0  0.005597384233160918  0.3766077501155236  0.5554723164017563  1.0000
  Zn  Zn1       1.0  0.058236709761424484  0.40788144098862067  0.40966688435651943  1.0000
  Zn  Zn2       1.0  0.269794384776974  0.40787772495954067  0.40966206802940547  1.0000
  C   C26       1.0  0.16322129857497172  0.4049885729253557  0.6728771968676219  1.0000
  C   C27       1.0  0.1648121057265442  0.41077223327990464  0.14645189606155262  1.0000
  C   C28       1.0  0.16403085305566334  0.6450874508471311  0.40379891981057586  1.0000
  C   C29       1.0  0.16400247883480587  0.1706717952941972  0.4155302507626175  1.0000
  O   O1        1.0  0.24493299365875879  0.412968179579074  0.20014181178157786  1.0000
  O   O2        1.0  0.2436677921310887  0.4027888226545677  0.6191832113274193  1.0000
  O   O3        1.0  0.24432043079577903  0.596671716061973  0.4019005981540822  1.0000
  O   O4        1.0  0.24428028313078404  0.2190852945281665  0.4174243168974212  1.0000
  O   O5        1.0  0.08375073921338541  0.596673871422611  0.40190463548256594  1.0000
  O   O6        1.0  0.08309810076551384  0.4027925380817545  0.6191871710059473  1.0000
  O   O7        1.0  0.08436330760255628  0.4129718347042697  0.2001440388350053  1.0000
  O   O8        1.0  0.08371059674363757  0.21908894129948142  0.41742665200240503  1.0000
