data_image0
_chemical_formula_structural       NC5NC3F3CH3C9H10C6NCH7Zn2C4O8
_chemical_formula_sum              "N3 C29 F3 H20 Zn2 O8"
_cell_length_a       13.85151926108384
_cell_length_b       10.297183801781406
_cell_length_c       9.273390368590327
_cell_angle_alpha    86.14107260812962
_cell_angle_beta     89.99084653650657
_cell_angle_gamma    89.99762972311773

_space_group_name_H-M_alt    "P 1"
_space_group_IT_number       1

loop_
  _space_group_symop_operation_xyz
  'x, y, z'

loop_
  _atom_site_type_symbol
  _atom_site_label
  _atom_site_symmetry_multiplicity
  _atom_site_fract_x
  _atom_site_fract_y
  _atom_site_fract_z
  _atom_site_occupancy
  N   N1        1.0  0.9092088919402198  0.4064605459826507  0.4094788975815642  1.0000
  C   C1        1.0  0.8368729307393443  0.39887936730355333  0.4719373785829433  1.0000
  C   C2        1.0  0.7468813051273533  0.3894473449192819  0.5496446640560597  1.0000
  C   C3        1.0  0.6593630890907746  0.3970310274899451  0.47413060107956895  1.0000
  C   C4        1.0  0.5718293156259928  0.38944733288612343  0.549644644007506  1.0000
  C   C5        1.0  0.48185367860953116  0.39887938275087986  0.47193747262453606  1.0000
  N   N2        1.0  0.40953070631669813  0.4064605128626099  0.40947900303100404  1.0000
  C   C6        1.0  0.5718045042992915  0.3733826959652844  0.700849216513826  1.0000
  C   C7        1.0  0.659331747527928  0.3629378053563943  0.777626595009806  1.0000
  C   C8        1.0  0.6593147356751689  0.3504663360694907  0.9406227254765138  1.0000
  F   F1        1.0  0.7402456811870753  0.2835691636122648  0.9922485174869773  1.0000
  F   F2        1.0  0.578376866516558  0.2835691369993183  0.9922486167781556  1.0000
  F   F3        1.0  0.6593054208082934  0.4732987996398452  0.9922700943989912  1.0000
  C   C9        1.0  0.7468748311407459  0.3733826103514467  0.7008492361703051  1.0000
  H   H1        1.0  0.6593752101336459  0.40961314299696694  0.3570625851383278  1.0000
  H   H2        1.0  0.5036752197442508  0.36927017327341627  0.7584923337465048  1.0000
  H   H3        1.0  0.8149919732701065  0.36927010000916277  0.7584922927505042  1.0000
  C   C10       1.0  0.1593777706494004  0.02498693700154298  0.40968314539104345  1.0000
  C   C11       1.0  0.15657945092062575  0.03339529736020696  0.25801684724212387  1.0000
  C   C12       1.0  0.15514556658733028  0.9210866588660903  0.18031376750853736  1.0000
  C   C13       1.0  0.15656820328535043  0.7982185782535476  0.2574290111283043  1.0000
  C   C14       1.0  0.1593710693919781  0.7879242733977426  0.4092871449814639  1.0000
  C   C15       1.0  0.16075664007490076  0.9017750932758237  0.48442291692196493  1.0000
  C   C16       1.0  0.1521187190977849  0.9396130891298502  0.01627595667400517  1.0000
  C   C17       1.0  0.095597851721406  0.8401282582832977  0.9360435932571729  1.0000
  C   C18       1.0  0.20558412606385623  0.8403926471642889  0.9314650219450546  1.0000
  H   H4        1.0  0.16046521991586168  0.349285380044301  0.4681250347908439  1.0000
  H   H5        1.0  0.1554993478471276  0.128063753703209  0.19946528848823442  1.0000
  H   H6        1.0  0.15551575233140857  0.7100740287868316  0.20050341783189474  1.0000
  H   H7        1.0  0.1629151186277594  0.8945604238240825  0.6014366508273729  1.0000
  H   H8        1.0  0.16465206992310022  0.5612647802327596  0.6961044000400467  1.0000
  H   H9        1.0  0.15114672342915392  0.0398240174183755  0.963551320578719  1.0000
  H   H10       1.0  0.06337582520921316  0.7571185310717728  0.0016344967563333126  1.0000
  H   H11       1.0  0.06154945383845825  0.8800252280579081  0.8340704692093102  1.0000
  H   H12       1.0  0.24017285485028084  0.7575443289153281  0.9942754416439118  1.0000
  H   H13       1.0  0.23581786539183758  0.880441760548941  0.8268145946354952  1.0000
  C   C19       1.0  0.15941919345276023  0.4024046720667169  0.9862414905353055  1.0000
  C   C20       1.0  0.2480875242359506  0.3998235562422658  0.0598453283949727  1.0000
  C   C21       1.0  0.3352091736477082  0.40931835144391826  0.9844256243270265  1.0000
  C   C22       1.0  0.3358760466904003  0.4217461863986032  0.8327911855246191  1.0000
  C   C23       1.0  0.24779617173904978  0.4221365417490952  0.7583788828030913  1.0000
  C   C24       1.0  0.15932965273934618  0.4105065590308687  0.8327288200105597  1.0000
  N   N3        1.0  0.42462938253226645  0.43273670251533164  0.75199722227994  1.0000
  C   C25       1.0  0.5199484318949241  0.4328898065735811  0.8189853539177094  1.0000
  H   H14       1.0  0.007041105663187173  0.3400046828201393  0.27211385137204713  1.0000
  H   H15       1.0  0.40172559477618536  0.408123007706055  0.04554725844035312  1.0000
  H   H16       1.0  0.9343439655086038  0.3095847459143084  0.73729008455408  1.0000
  H   H17       1.0  0.42149690062647194  0.4413460078696304  0.639116920048793  1.0000
  H   H18       1.0  0.5262131782428947  0.5162217246672731  0.8884106385693699  1.0000
  H   H19       1.0  0.5317252485156015  0.34003223640363944  0.8845874892505191  1.0000
  H   H20       1.0  0.5765245985047152  0.4427103685266369  0.7340896979834284  1.0000
  Zn  Zn1       1.0  0.05359095935263514  0.40645714798090915  0.4094872372659659  1.0000
  Zn  Zn2       1.0  0.2651486202985201  0.40645342763835446  0.40948242039479055  1.0000
  C   C26       1.0  0.15934444960256583  0.40380000952924494  0.6727272825207194  1.0000
  C   C27       1.0  0.15939744022226798  0.40911220647298707  0.14624251569916313  1.0000
  C   C28       1.0  0.15936796089309965  0.6436579025248004  0.4036186098634498  1.0000
  C   C29       1.0  0.1593738567475045  0.1692527534830377  0.41535126600922156  1.0000
  O   O1        1.0  0.2396751694762476  0.41135623714567093  0.19993849633543564  1.0000
  O   O2        1.0  0.23963408994798174  0.4015521712400364  0.6190272316045347  1.0000
  O   O3        1.0  0.23965199317325792  0.5952404676139037  0.4017200737688873  1.0000
  O   O4        1.0  0.2396571940720249  0.21766794903152453  0.4172455461013832  1.0000
  O   O5        1.0  0.07908231338488415  0.5952426265903503  0.40172411155343535  1.0000
  O   O6        1.0  0.07906441014959231  0.4015558902134877  0.6190311917303557  1.0000
  O   O7        1.0  0.07910548992581082  0.41135989426540237  0.19994072364043491  1.0000
  O   O8        1.0  0.07908751450628904  0.21767159789414567  0.41724788147014463  1.0000
