data_image0
_chemical_formula_structural       NC5OC5NC4H8C7NH5C7F3H5Zn2C4O8
_chemical_formula_sum              "N3 C32 O9 H18 F3 Zn2"
_cell_length_a       19.189071930511275
_cell_length_b       9.275154477615127
_cell_length_c       10.299327507215196
_cell_angle_alpha    85.77882767837892
_cell_angle_beta     89.9592371194645
_cell_angle_gamma    89.42495848434854

_space_group_name_H-M_alt    "P 1"
_space_group_IT_number       1

loop_
  _space_group_symop_operation_xyz
  'x, y, z'

loop_
  _atom_site_type_symbol
  _atom_site_label
  _atom_site_symmetry_multiplicity
  _atom_site_fract_x
  _atom_site_fract_y
  _atom_site_fract_z
  _atom_site_occupancy
  N   N1        1.0  0.6489288565640641  0.5779387962048859  0.5726290001122707  1.0000
  C   C1        1.0  0.5942305050489793  0.6291411984550974  0.554519872150157  1.0000
  C   C2        1.0  0.5261928184112034  0.6928284545819275  0.5319948353013956  1.0000
  C   C3        1.0  0.5160006897636946  0.8004474511241001  0.4309583336703869  1.0000
  C   C4        1.0  0.4499090223520492  0.8623925468669524  0.4092040462946956  1.0000
  C   C5        1.0  0.39335149523003954  0.8166039100496556  0.4871305131292306  1.0000
  O   O1        1.0  0.3280699810870317  0.8825810855468721  0.46312564955447266  1.0000
  C   C6        1.0  0.26341156281359823  0.8163935582410503  0.486565529002605  1.0000
  C   C7        1.0  0.2062321820686498  0.9025270949086489  0.5171345042336284  1.0000
  C   C8        1.0  0.140723087756343  0.8408987947345864  0.5397406251174249  1.0000
  C   C9        1.0  0.1317385572318913  0.6923352548786654  0.5306688822308242  1.0000
  C   C10       1.0  0.0643001889879884  0.628869458736268  0.5537892154766091  1.0000
  N   N2        1.0  0.010083720917017307  0.5778451660852049  0.572377371366504  1.0000
  C   C11       1.0  0.1884466699246797  0.6058597695093215  0.49818121163079365  1.0000
  C   C12       1.0  0.25394668741831866  0.6675318495323066  0.4756188846179439  1.0000
  C   C13       1.0  0.4040207189549651  0.7099867558908152  0.589789049733187  1.0000
  C   C14       1.0  0.4701034842527783  0.6480370939543885  0.6116047015345731  1.0000
  H   H1        1.0  0.5590875922090923  0.8365516370063751  0.36919350104364823  1.0000
  H   H2        1.0  0.44248970291243317  0.9457108516233481  0.3310290521136299  1.0000
  H   H3        1.0  0.21271669135438914  0.017513491568501575  0.5241220234147572  1.0000
  H   H4        1.0  0.09714474512869913  0.9090246002622849  0.5640890803936336  1.0000
  H   H5        1.0  0.1819551049487862  0.4910436464540444  0.4896193790075406  1.0000
  H   H6        1.0  0.2968154156972475  0.5996382688209791  0.44785738182388335  1.0000
  H   H7        1.0  0.361630791607453  0.676299449791083  0.6540158624459087  1.0000
  H   H8        1.0  0.477523602447646  0.5658819157407927  0.6908753838604949  1.0000
  C   C15       1.0  0.8315264943472569  0.15450241265785358  0.5709989105111705  1.0000
  C   C16       1.0  0.8124180337187146  0.23770402936697405  0.45650408412584415  1.0000
  C   C17       1.0  0.7876401755710918  0.17168867424476764  0.3480788749219941  1.0000
  C   C18       1.0  0.781562710776412  0.021568989126327764  0.3528716311633775  1.0000
  C   C19       1.0  0.8013175118266199  0.9371599306271278  0.46475588532441187  1.0000
  C   C20       1.0  0.8274928274126372  0.0012705128013985503  0.5740186722289424  1.0000
  C   C21       1.0  0.7676048230437359  0.258472555343816  0.23220457267161243  1.0000
  N   N3        1.0  0.7515019574991938  0.32823088370953  0.13907131430117192  1.0000
  H   H9        1.0  0.8449831454994561  0.2311210399446746  0.8897784398454469  1.0000
  H   H10       1.0  0.81526469823925  0.3546632836387771  0.45264863253954224  1.0000
  H   H11       1.0  0.7621480457817935  0.9694602402371901  0.26954030697360243  1.0000
  H   H12       1.0  0.7976581722589353  0.820693300373336  0.46464414048719227  1.0000
  H   H13       1.0  0.8395109870887376  0.7024643597970253  0.7876079328876946  1.0000
  C   C22       1.0  0.8295761148953028  0.5779449954849033  0.19112735246858836  1.0000
  C   C23       1.0  0.8970217861035376  0.6357376093627547  0.18601585513565633  1.0000
  C   C24       1.0  0.9305249449449482  0.6673390098858287  0.06615013962033589  1.0000
  C   C25       1.0  0.8968472803313802  0.6355847652830393  0.9507779743464848  1.0000
  C   C26       1.0  0.8294432253101637  0.5778279304356916  0.9538902041508182  1.0000
  C   C27       1.0  0.796092498122631  0.549877525313349  0.07454138827718237  1.0000
  C   C28       1.0  0.003907821340636722  0.7244932405212242  0.06204037361911264  1.0000
  F   F1        1.0  0.01567954195989408  0.8086847997359854  0.16522330790216166  1.0000
  F   F2        1.0  0.05048677083454267  0.6095282370529442  0.06946731509320792  1.0000
  F   F3        1.0  0.01548819011859437  0.8086652877703951  0.9475799678697704  1.0000
  H   H14       1.0  0.7027824534895966  0.4664729281496986  0.4081705152760718  1.0000
  H   H15       1.0  0.9236500152300412  0.6560091543087209  0.27546608084840246  1.0000
  H   H16       1.0  0.9233558320404861  0.655747591774072  0.8584513330781229  1.0000
  H   H17       1.0  0.7441083263704955  0.5053371019258277  0.07767613812201325  1.0000
  H   H18       1.0  0.8039957305457786  0.5532565967213225  0.6277888384163282  1.0000
  Zn  Zn1       1.0  0.7531503748378561  0.5779079291481661  0.5725638660639336  1.0000
  Zn  Zn2       1.0  0.9058622741464136  0.5778642810463503  0.5724530822325606  1.0000
  C   C29       1.0  0.8294941315069547  0.5721063050036799  0.8096911992459292  1.0000
  C   C30       1.0  0.829520176398489  0.5836677238634995  0.3353258817989122  1.0000
  C   C31       1.0  0.8282525881161401  0.8412140933713604  0.5682725020460256  1.0000
  C   C32       1.0  0.8307616759189691  0.31455820327748363  0.5767446421001119  1.0000
  O   O2        1.0  0.8874548028139572  0.5855654695437942  0.38367816119406606  1.0000
  O   O3        1.0  0.8874643084002488  0.570174343809424  0.7612544597490064  1.0000
  O   O4        1.0  0.886460964936248  0.7874822862648077  0.5663071595957057  1.0000
  O   O5        1.0  0.8884580941355682  0.3682575374321069  0.5786253640440906  1.0000
  O   O6        1.0  0.7705545027356185  0.7875146727788755  0.5663915842833837  1.0000
  O   O7        1.0  0.7715578379568708  0.5702084625582922  0.7613388213663679  1.0000
  O   O8        1.0  0.7715483329283469  0.5855995382899037  0.3837609611803392  1.0000
  O   O9        1.0  0.7725516242792649  0.3682915958509859  0.5787082613646198  1.0000
