data_image0
_chemical_formula_structural       NC9NC3OH6C7OH6C9H8Zn2C4O8
_chemical_formula_sum              "N2 C32 O10 H20 Zn2"
_cell_length_a       15.78231758774541
_cell_length_b       9.274078303013075
_cell_length_c       9.275155815604961
_cell_angle_alpha    86.23195099776972
_cell_angle_beta     90.4446892459172
_cell_angle_gamma    89.04960325712263

_space_group_name_H-M_alt    "P 1"
_space_group_IT_number       1

loop_
  _space_group_symop_operation_xyz
  'x, y, z'

loop_
  _atom_site_type_symbol
  _atom_site_label
  _atom_site_symmetry_multiplicity
  _atom_site_fract_x
  _atom_site_fract_y
  _atom_site_fract_z
  _atom_site_occupancy
  N   N1        1.0  0.7827752067688347  0.5558201406761535  0.417661056871782  1.0000
  C   C1        1.0  0.7348832735376556  0.46491843679275346  0.44410721103169504  1.0000
  C   C2        1.0  0.6754234724560563  0.3520873299502957  0.47693370550045167  1.0000
  C   C3        1.0  0.6960837953242708  0.21035252186813636  0.5180809428294405  1.0000
  C   C4        1.0  0.6198370564963135  0.1416629947592256  0.5381052423337773  1.0000
  C   C5        1.0  0.5573181310708204  0.24656336685593905  0.5076973906627766  1.0000
  C   C6        1.0  0.46436401363311824  0.2271697643118984  0.5134211807164935  1.0000
  C   C7        1.0  0.4097813244187763  0.34608591446116077  0.47876691558992307  1.0000
  C   C8        1.0  0.32168709261690714  0.33018369344737714  0.4834682332200933  1.0000
  C   C9        1.0  0.2663835028506825  0.452559692221921  0.44779653230816185  1.0000
  N   N2        1.0  0.22193241748438278  0.5509341943369133  0.419119658124805  1.0000
  C   C10       1.0  0.28749551759782066  0.19518835160725811  0.5228776490006473  1.0000
  C   C11       1.0  0.3411455601486761  0.07651809870624925  0.5574651029539855  1.0000
  C   C12       1.0  0.4290572083888003  0.09198344810083238  0.5528915264994021  1.0000
  O   O1        1.0  0.5929012131027439  0.3708830163068433  0.4715519728397757  1.0000
  H   H1        1.0  0.7588804700076068  0.1625539761684864  0.5319008339363194  1.0000
  H   H2        1.0  0.6119000413174752  0.02871837270162203  0.570911292636195  1.0000
  H   H3        1.0  0.43564665114465245  0.45113618213417034  0.4480941621800083  1.0000
  H   H4        1.0  0.21947429148464762  0.18171997659790473  0.5268570650627805  1.0000
  H   H5        1.0  0.3145448594305134  0.9721860132114533  0.5879286316133965  1.0000
  H   H6        1.0  0.4688057451421186  0.9979883291301054  0.580296381612059  1.0000
  C   C13       1.0  0.004878893060078493  0.12987050913203246  0.41710631107263785  1.0000
  C   C14       1.0  0.9880236736575494  0.21240180965435174  0.2869441769871466  1.0000
  C   C15       1.0  0.963864746859527  0.14649025552816508  0.16168084340701583  1.0000
  C   C16       1.0  0.9563355810177581  0.9959720868302755  0.1664990316609738  1.0000
  C   C17       1.0  0.9741346709684415  0.9123485848045302  0.29398193404701023  1.0000
  C   C18       1.0  0.9998369423942324  0.9768727442978831  0.4196868812502622  1.0000
  C   C19       1.0  0.9459220636133963  0.23645234410054905  0.027484367297211827  1.0000
  O   O2        1.0  0.9237308195075931  0.18041936996825161  0.9132916763251884  1.0000
  H   H7        1.0  0.003556039211162874  0.20956921144707905  0.7719612703383287  1.0000
  H   H8        1.0  0.9918027118386368  0.32919860559752734  0.2838481267192985  1.0000
  H   H9        1.0  0.9374552624297926  0.9425111300420871  0.07128709997994465  1.0000
  H   H10       1.0  0.9697148624870391  0.7959539711639345  0.29319626330274434  1.0000
  H   H11       1.0  0.002653783266665986  0.680003912539363  0.6580559770369814  1.0000
  H   H12       1.0  0.9517663479288097  0.35268886319428194  0.025989300897710135  1.0000
  C   C20       1.0  0.0008269929531050661  0.5497435560906441  0.9951490788796585  1.0000
  C   C21       1.0  0.9341179966385128  0.620753126722469  0.06295787170321887  1.0000
  C   C22       1.0  0.8730277992864101  0.7012842964787342  0.9817150770688611  1.0000
  C   C23       1.0  0.8775125418270214  0.7124906157439324  0.8311826935552094  1.0000
  C   C24       1.0  0.9425209065331632  0.6407251623121428  0.7616575115583518  1.0000
  C   C25       1.0  0.0038888102088083794  0.556999674544268  0.841644030020738  1.0000
  C   C26       1.0  0.8146893816708315  0.7964101751419352  0.747631856619969  1.0000
  C   C27       1.0  0.7620862808946783  0.8666813155870291  0.6776428000033881  1.0000
  C   C28       1.0  0.6982618726430321  0.9519434567884486  0.5927114388859853  1.0000
  H   H13       1.0  0.19820730558120425  0.4311981869588972  0.10840569029261382  1.0000
  H   H14       1.0  0.9303347283063111  0.6167977418691839  0.17972458555624754  1.0000
  H   H15       1.0  0.8226991142947234  0.7560463531674291  0.0365271672835148  1.0000
  H   H16       1.0  0.9440462283058287  0.6474893101718191  0.6445370769544958  1.0000
  H   H17       1.0  0.13562367159173305  0.47202200411512146  0.5682430762931263  1.0000
  H   H18       1.0  0.7154568704931186  0.9558955186227379  0.4767822673438516  1.0000
  H   H19       1.0  0.6354555188766199  0.9012898821879537  0.6073716407772296  1.0000
  H   H20       1.0  0.6954544149306291  0.06332681574366594  0.6295483174729268  1.0000
  Zn  Zn1       1.0  0.9095065408306089  0.5544063811257607  0.418090282282483  1.0000
  Zn  Zn2       1.0  0.09520116761388037  0.5523362842692687  0.41870217896299544  1.0000
  C   C29       1.0  0.0033423836675943184  0.5498828467952127  0.6816208836828197  1.0000
  C   C30       1.0  0.0013673422361357716  0.5568616168790217  0.15517173125217612  1.0000
  C   C31       1.0  0.000764829854376537  0.816722124707661  0.41345558855905745  1.0000
  C   C32       1.0  0.003944843276983081  0.29002060762998244  0.4233370977299898  1.0000
  O   O3        1.0  0.07201886895328014  0.5584586203815376  0.20910898764584698  1.0000
  O   O4        1.0  0.07362878697344571  0.5467135961480627  0.6281476244981241  1.0000
  O   O5        1.0  0.07154643512120978  0.7621897111423555  0.4116022528100113  1.0000
  O   O6        1.0  0.07410115698821812  0.34298251548397884  0.42565425108909494  1.0000
  O   O7        1.0  0.9306064880877715  0.7637601506189777  0.41113820993999683  1.0000
  O   O8        1.0  0.9326888293438774  0.5482857676692028  0.6276835100576718  1.0000
  O   O9        1.0  0.9310789054113519  0.560030726791626  0.2086431401924782  1.0000
  O   O10       1.0  0.9331611938950876  0.3445546125052603  0.42518851166420557  1.0000
