data_image0
_chemical_formula_structural       Nd8H16C56N16O48
_chemical_formula_sum              "Nd8 H16 C56 N16 O48"
_cell_length_a       10.989
_cell_length_b       11.946
_cell_length_c       19.402
_cell_angle_alpha    90.0
_cell_angle_beta     90.0
_cell_angle_gamma    90.0

_space_group_name_H-M_alt    "P 1"
_space_group_IT_number       1

loop_
  _space_group_symop_operation_xyz
  'x, y, z'

loop_
  _atom_site_type_symbol
  _atom_site_label
  _atom_site_symmetry_multiplicity
  _atom_site_fract_x
  _atom_site_fract_y
  _atom_site_fract_z
  _atom_site_occupancy
  Nd  Nd1       1.0  0.13672  0.34181  0.01438  1.0000
  Nd  Nd2       1.0  0.61797  0.524  0.22855  1.0000
  Nd  Nd3       1.0  0.8632799999999998  0.65819  0.51438  1.0000
  Nd  Nd4       1.0  0.3820299999999999  0.476  0.72855  1.0000
  Nd  Nd5       1.0  0.36328  0.84181  0.01438  1.0000
  Nd  Nd6       1.0  0.8820299999999998  0.024  0.22855  1.0000
  Nd  Nd7       1.0  0.63672  0.15819  0.51438  1.0000
  Nd  Nd8       1.0  0.11796999999999999  0.976  0.72855  1.0000
  H   H1        1.0  0.34929999999999994  0.4933  0.1218  1.0000
  H   H2        1.0  0.23179999999999998  0.2403  0.2821  1.0000
  H   H3        1.0  0.8701  0.3983  0.1257  1.0000
  H   H4        1.0  0.005399999999999999  0.7564  0.11480000000000001  1.0000
  H   H5        1.0  0.6506999999999998  0.5067  0.6218  1.0000
  H   H6        1.0  0.7681999999999998  0.7597000000000002  0.7821000000000001  1.0000
  H   H7        1.0  0.1299  0.6017  0.6257000000000003  1.0000
  H   H8        1.0  0.9946  0.2436  0.6148  1.0000
  H   H9        1.0  0.1507  0.9933  0.1218  1.0000
  H   H10       1.0  0.2682  0.7403  0.2821  1.0000
  H   H11       1.0  0.6298999999999999  0.8983  0.1257  1.0000
  H   H12       1.0  0.49459999999999993  0.2564  0.11480000000000001  1.0000
  H   H13       1.0  0.8493  0.0067  0.6218  1.0000
  H   H14       1.0  0.7318  0.2597  0.7821000000000001  1.0000
  H   H15       1.0  0.3701  0.1017  0.6257000000000003  1.0000
  H   H16       1.0  0.5054  0.7436000000000001  0.6148  1.0000
  C   C1        1.0  0.3279  0.4383  0.1534  1.0000
  C   C2        1.0  0.3642  0.35180000000000006  0.2558  1.0000
  C   C3        1.0  0.2577  0.2896  0.24810000000000001  1.0000
  C   C4        1.0  0.19299999999999995  0.304  0.18870000000000003  1.0000
  C   C5        1.0  0.0862  0.2294  0.17040000000000005  1.0000
  C   C6        1.0  0.44729999999999986  0.3326  0.3167  1.0000
  C   C7        1.0  0.8982  0.4717  0.12400000000000001  1.0000
  C   C8        1.0  0.8735999999999998  0.6549  0.1537  1.0000
  C   C9        1.0  0.9786  0.6827  0.118  1.0000
  C   C10       1.0  0.0413  0.5961  0.0876  1.0000
  C   C11       1.0  0.1605  0.616  0.0501  1.0000
  C   C12       1.0  0.7959999999999999  0.7446000000000002  0.1879  1.0000
  C   C13       1.0  0.7991999999999998  0.5649  0.3599  1.0000
  C   C14       1.0  0.6774  0.6174  0.38370000000000004  1.0000
  C   C15       1.0  0.6720999999999999  0.5617  0.6534  1.0000
  C   C16       1.0  0.6358  0.6482  0.7558  1.0000
  C   C17       1.0  0.7423  0.7104000000000001  0.7481  1.0000
  C   C18       1.0  0.8069999999999999  0.696  0.6887000000000001  1.0000
  C   C19       1.0  0.9138  0.7706  0.6704  1.0000
  C   C20       1.0  0.5527  0.6674  0.8167000000000002  1.0000
  C   C21       1.0  0.10179999999999999  0.5283  0.6240000000000001  1.0000
  C   C22       1.0  0.1264  0.3451000000000001  0.6537  1.0000
  C   C23       1.0  0.0214  0.3173  0.618  1.0000
  C   C24       1.0  0.9586999999999999  0.4039  0.5876  1.0000
  C   C25       1.0  0.8394999999999998  0.384  0.5501  1.0000
  C   C26       1.0  0.204  0.2554  0.6879  1.0000
  C   C27       1.0  0.20079999999999998  0.4351  0.8599  1.0000
  C   C28       1.0  0.3226  0.3826  0.8837  1.0000
  C   C29       1.0  0.1721  0.9383  0.1534  1.0000
  C   C30       1.0  0.1358  0.8518  0.2558  1.0000
  C   C31       1.0  0.24229999999999996  0.7896  0.24810000000000001  1.0000
  C   C32       1.0  0.307  0.8040000000000002  0.18870000000000003  1.0000
  C   C33       1.0  0.4137999999999999  0.7294000000000002  0.17040000000000005  1.0000
  C   C34       1.0  0.0527  0.8326  0.3167  1.0000
  C   C35       1.0  0.6018  0.9717  0.12400000000000001  1.0000
  C   C36       1.0  0.6264  0.1549  0.1537  1.0000
  C   C37       1.0  0.5214  0.1827  0.118  1.0000
  C   C38       1.0  0.45869999999999994  0.09610000000000002  0.0876  1.0000
  C   C39       1.0  0.33949999999999997  0.116  0.0501  1.0000
  C   C40       1.0  0.704  0.2446  0.1879  1.0000
  C   C41       1.0  0.7008  0.0649  0.3599  1.0000
  C   C42       1.0  0.8225999999999998  0.1174  0.38370000000000004  1.0000
  C   C43       1.0  0.8279  0.0617  0.6534  1.0000
  C   C44       1.0  0.8642  0.1482  0.7558  1.0000
  C   C45       1.0  0.7576999999999998  0.2104  0.7481  1.0000
  C   C46       1.0  0.6929999999999998  0.196  0.6887000000000001  1.0000
  C   C47       1.0  0.5862  0.2706  0.6704  1.0000
  C   C48       1.0  0.9473  0.1674  0.8167000000000002  1.0000
  C   C49       1.0  0.3982  0.0283  0.6240000000000001  1.0000
  C   C50       1.0  0.37359999999999993  0.8451  0.6537  1.0000
  C   C51       1.0  0.47859999999999997  0.8173  0.618  1.0000
  C   C52       1.0  0.5413  0.9039  0.5876  1.0000
  C   C53       1.0  0.6605  0.884  0.5501  1.0000
  C   C54       1.0  0.29599999999999993  0.7554  0.6879  1.0000
  C   C55       1.0  0.29919999999999997  0.9351  0.8599  1.0000
  C   C56       1.0  0.1774  0.8826  0.8837  1.0000
  N   N1        1.0  0.2276  0.3788000000000001  0.14  1.0000
  N   N2        1.0  0.3999  0.4257  0.2082  1.0000
  N   N3        1.0  0.0004999999999999999  0.4909  0.0887  1.0000
  N   N4        1.0  0.8329  0.5492  0.15710000000000005  1.0000
  N   N5        1.0  0.7724  0.6212  0.6400000000000002  1.0000
  N   N6        1.0  0.6001  0.5743  0.7082  1.0000
  N   N7        1.0  0.9995  0.5091  0.5887  1.0000
  N   N8        1.0  0.16709999999999997  0.4508  0.6571000000000001  1.0000
  N   N9        1.0  0.2723999999999999  0.8788  0.14  1.0000
  N   N10       1.0  0.1001  0.9257  0.2082  1.0000
  N   N11       1.0  0.49949999999999994  0.9909  0.0887  1.0000
  N   N12       1.0  0.6670999999999999  0.0492  0.15710000000000005  1.0000
  N   N13       1.0  0.7276  0.1212  0.6400000000000002  1.0000
  N   N14       1.0  0.8999  0.0743  0.7082  1.0000
  N   N15       1.0  0.5005  0.0091  0.5887  1.0000
  N   N16       1.0  0.3329  0.9508  0.6571000000000001  1.0000
  O   O1        1.0  0.044699999999999976  0.2387  0.11006000000000002  1.0000
  O   O2        1.0  0.0503  0.1622  0.21588  1.0000
  O   O3        1.0  0.5429  0.3919000000000001  0.31907000000000013  1.0000
  O   O4        1.0  0.4148  0.2617  0.3581  1.0000
  O   O5        1.0  0.2084  0.5345  0.018600000000000005  1.0000
  O   O6        1.0  0.20569999999999997  0.7114000000000001  0.05666000000000001  1.0000
  O   O7        1.0  0.7004999999999999  0.7131  0.21651000000000006  1.0000
  O   O8        1.0  0.8341  0.8427  0.1838  1.0000
  O   O9        1.0  0.8892999999999999  0.579  0.3976000000000001  1.0000
  O   O10       1.0  0.7952  0.5109  0.3044  1.0000
  O   O11       1.0  0.6740999999999999  0.6515  0.44458000000000003  1.0000
  O   O12       1.0  0.5918  0.6204  0.34009000000000006  1.0000
  O   O13       1.0  0.9552999999999999  0.7613  0.61006  1.0000
  O   O14       1.0  0.9496999999999998  0.8378  0.71588  1.0000
  O   O15       1.0  0.4571  0.6081  0.8190700000000002  1.0000
  O   O16       1.0  0.5852  0.7383  0.8581000000000001  1.0000
  O   O17       1.0  0.7915999999999997  0.4655  0.5186  1.0000
  O   O18       1.0  0.7943  0.2886  0.55666  1.0000
  O   O19       1.0  0.2995  0.2869  0.7165100000000001  1.0000
  O   O20       1.0  0.1659  0.1573  0.6838  1.0000
  O   O21       1.0  0.1107  0.421  0.8976000000000001  1.0000
  O   O22       1.0  0.20479999999999995  0.4891  0.8044  1.0000
  O   O23       1.0  0.32589999999999997  0.3485  0.9445800000000001  1.0000
  O   O24       1.0  0.4082  0.3796  0.8400900000000002  1.0000
  O   O25       1.0  0.45529999999999987  0.7387000000000001  0.11006000000000002  1.0000
  O   O26       1.0  0.4497  0.6622  0.21588  1.0000
  O   O27       1.0  0.9570999999999997  0.8919  0.31907000000000013  1.0000
  O   O28       1.0  0.0852  0.7617000000000002  0.3581  1.0000
  O   O29       1.0  0.2916  0.034499999999999996  0.018600000000000005  1.0000
  O   O30       1.0  0.2943  0.2114  0.05666000000000001  1.0000
  O   O31       1.0  0.7995  0.2131  0.21651000000000006  1.0000
  O   O32       1.0  0.6658999999999999  0.34270000000000006  0.1838  1.0000
  O   O33       1.0  0.6106999999999999  0.079  0.3976000000000001  1.0000
  O   O34       1.0  0.7047999999999999  0.0109  0.3044  1.0000
  O   O35       1.0  0.8258999999999999  0.1515  0.44458000000000003  1.0000
  O   O36       1.0  0.9081999999999998  0.1204  0.34009000000000006  1.0000
  O   O37       1.0  0.5446999999999999  0.2613  0.61006  1.0000
  O   O38       1.0  0.5503  0.3378  0.71588  1.0000
  O   O39       1.0  0.042899999999999994  0.1081  0.8190700000000002  1.0000
  O   O40       1.0  0.9147999999999998  0.2383  0.8581000000000001  1.0000
  O   O41       1.0  0.7084  0.9655  0.5186  1.0000
  O   O42       1.0  0.7057  0.7886  0.55666  1.0000
  O   O43       1.0  0.20049999999999998  0.7869000000000002  0.7165100000000001  1.0000
  O   O44       1.0  0.3341  0.6573  0.6838  1.0000
  O   O45       1.0  0.3893  0.921  0.8976000000000001  1.0000
  O   O46       1.0  0.2952  0.9891  0.8044  1.0000
  O   O47       1.0  0.17409999999999998  0.8485  0.9445800000000001  1.0000
  O   O48       1.0  0.0918  0.8796  0.8400900000000002  1.0000
