data_image0
_chemical_formula_structural       NC5NC3F3CH3C6NH7C7ONH5Zn2C4O8
_chemical_formula_sum              "N4 C26 F3 H15 O9 Zn2"
_cell_length_a       13.85151926108384
_cell_length_b       9.274771166103582
_cell_length_c       9.273042158839658
_cell_angle_alpha    86.05644510922068
_cell_angle_beta     90.09323963097282
_cell_angle_gamma    90.59705350001695

_space_group_name_H-M_alt    "P 1"
_space_group_IT_number       1

loop_
  _space_group_symop_operation_xyz
  'x, y, z'

loop_
  _atom_site_type_symbol
  _atom_site_label
  _atom_site_symmetry_multiplicity
  _atom_site_fract_x
  _atom_site_fract_y
  _atom_site_fract_z
  _atom_site_occupancy
  N   N1        1.0  0.9182446081933439  0.561884522430091  0.4072631778565789  1.0000
  C   C1        1.0  0.8459243770768101  0.5534604581972165  0.4697360474796823  1.0000
  C   C2        1.0  0.7559523223166708  0.5429797709503903  0.5474612343828009  1.0000
  C   C3        1.0  0.66840278404544  0.5514078538103648  0.47193218650083124  1.0000
  C   C4        1.0  0.5809003326977588  0.5429797575906743  0.5474612143516773  1.0000
  C   C5        1.0  0.49090512517957957  0.5534604753410064  0.46973614150200027  1.0000
  N   N2        1.0  0.4185664224383523  0.5618844856435989  0.4072632833612815  1.0000
  C   C6        1.0  0.5809313990119761  0.5251272446319244  0.6986971321791968  1.0000
  C   C7        1.0  0.6684692243473792  0.5135219568003677  0.7754939135854644  1.0000
  C   C8        1.0  0.6685501332740094  0.49965817844333954  0.9385164482480169  1.0000
  F   F1        1.0  0.749022572227008  0.4253706675355093  0.9902465388843268  1.0000
  F   F2        1.0  0.5871537574682598  0.4253706379750779  0.9902466382205708  1.0000
  F   F3        1.0  0.6695578094733096  0.6360464362250139  0.9899789559470472  1.0000
  C   C9        1.0  0.7560017252111415  0.5251271495644627  0.6986971519670495  1.0000
  H   H1        1.0  0.6683727647581437  0.5653901374942227  0.3548396819680406  1.0000
  H   H2        1.0  0.5128390611406961  0.5205552324259  0.756349133043531  1.0000
  H   H3        1.0  0.8241558140477747  0.520555151077168  0.7563490921573299  1.0000
  C   C10       1.0  0.16544712258218786  0.13829624204440893  0.40804882657787456  1.0000
  C   C11       1.0  0.14308173955116166  0.22024741399456715  0.2791563484373545  1.0000
  C   C12       1.0  0.1297290968929381  0.15383183545910284  0.14944610439897565  1.0000
  C   C13       1.0  0.138791355654583  0.004077716506537769  0.14768883510151798  1.0000
  C   C14       1.0  0.1593694652816998  0.9207884673095795  0.27481070728027124  1.0000
  C   C15       1.0  0.17137308578380808  0.9854618632282854  0.4064901001593646  1.0000
  N   N3        1.0  0.10795520832952632  0.2388675847944246  0.019137023329425025  1.0000
  H   H4        1.0  0.2744634027632058  0.22127897179989794  0.723488380510847  1.0000
  H   H5        1.0  0.13821336472528611  0.33683429065437487  0.2786026916703437  1.0000
  H   H6        1.0  0.1289747698087742  0.951539346264285  0.04788988886359791  1.0000
  H   H7        1.0  0.16361923739939882  0.8045809741425124  0.27068280201450046  1.0000
  H   H8        1.0  0.24088953629270463  0.6906559688094965  0.6211006832636916  1.0000
  H   H9        1.0  0.10130357930361635  0.3509409930094227  0.01909020841995956  1.0000
  H   H10       1.0  0.0982322675829006  0.19037138828877032  0.9217084207920648  1.0000
  C   C16       1.0  0.16791726893481906  0.5574210239547994  0.984012745550368  1.0000
  C   C17       1.0  0.07931069573979092  0.5666064169934546  0.05667664348472635  1.0000
  C   C18       1.0  0.9925450830152603  0.58974421957024  0.9803779005175528  1.0000
  C   C19       1.0  0.9949090832696719  0.6019543477009918  0.8288567340868305  1.0000
  C   C20       1.0  0.08192039384877714  0.5906511365914489  0.7551873020685171  1.0000
  C   C21       1.0  0.16890295383706544  0.5663370056246602  0.830526179201506  1.0000
  C   C22       1.0  0.9003615444770319  0.5997021101485589  0.060219589687426245  1.0000
  O   O1        1.0  0.8935214206882772  0.5438820058508588  0.18769291819476264  1.0000
  N   N4        1.0  0.8187546002070523  0.6728815941601265  0.9965484714004758  1.0000
  H   H11       1.0  0.4025307667092808  0.6125185074084321  0.08387144665652979  1.0000
  H   H12       1.0  0.9293581482589325  0.6162163453698225  0.766207353197268  1.0000
  H   H13       1.0  0.3269930372655712  0.5967552291072435  0.5475484423126842  1.0000
  H   H14       1.0  0.8238396095737144  0.7351706217199073  0.8987680336392758  1.0000
  H   H15       1.0  0.7535017741482257  0.6727192379489819  0.05279122515251422  1.0000
  Zn  Zn1       1.0  0.06262665915293453  0.5618807484982546  0.4072715230982238  1.0000
  Zn  Zn2       1.0  0.27418428540687967  0.5618766178870915  0.40726671167851114  1.0000
  C   C23       1.0  0.16867426317006973  0.558905294201812  0.670527563953131  1.0000
  C   C24       1.0  0.16813900448827956  0.5648538936513029  0.14401080888905393  1.0000
  C   C25       1.0  0.17024128391008153  0.8252690015862778  0.4010411193434986  1.0000
  C   C26       1.0  0.1665718995252737  0.2984884540418371  0.4134973335325365  1.0000
  O   O2        1.0  0.24849839356764436  0.5673405721091944  0.19770580621602285  1.0000
  O   O3        1.0  0.2488822092122159  0.5564143881529353  0.6168285019646045  1.0000
  O   O4        1.0  0.2501465177420754  0.7715064663011362  0.3992162885459667  1.0000
  O   O5        1.0  0.24723401279384405  0.3522485031428381  0.4153179115474679  1.0000
  O   O6        1.0  0.08957685957173744  0.7715088632454086  0.3992203232233247  1.0000
  O   O7        1.0  0.08831256307063895  0.5564185173251073  0.6168324566021703  1.0000
  O   O8        1.0  0.08792874512092679  0.5673446327633573  0.19770802804839938  1.0000
  O   O9        1.0  0.08666436439683478  0.3522525546180564  0.4153202414610957  1.0000
