data_image0
_chemical_formula_structural       NC5NC3BrH3C6NH7C7OH5Zn2C4O8
_chemical_formula_sum              "N3 C25 Br1 H15 O9 Zn2"
_cell_length_a       13.839083392302014
_cell_length_b       9.274771166103582
_cell_length_c       9.274074313596557
_cell_angle_alpha    86.0140142098405
_cell_angle_beta     90.2343589418284
_cell_angle_gamma    90.6230172981901

_space_group_name_H-M_alt    "P 1"
_space_group_IT_number       1

loop_
  _space_group_symop_operation_xyz
  'x, y, z'

loop_
  _atom_site_type_symbol
  _atom_site_label
  _atom_site_symmetry_multiplicity
  _atom_site_fract_x
  _atom_site_fract_y
  _atom_site_fract_z
  _atom_site_occupancy
  N   N1        1.0  0.9164671731736973  0.5636481966342881  0.40732500906211877  1.0000
  C   C1        1.0  0.84402711964111  0.5000089021854315  0.4099054957308735  1.0000
  C   C2        1.0  0.7537734093096764  0.420819615107582  0.4131163556620643  1.0000
  C   C3        1.0  0.666740703234805  0.497016904979767  0.41002700543348714  1.0000
  C   C4        1.0  0.5781803628613679  0.4222922849537105  0.4130565875932912  1.0000
  C   C5        1.0  0.4889613980634721  0.5008408856596871  0.4098717447005429  1.0000
  N   N2        1.0  0.4172409549879394  0.5639878007670851  0.40731118366998453  1.0000
  C   C6        1.0  0.5765847545326822  0.2710588837348449  0.4191881971227984  1.0000
  C   C7        1.0  0.6631715809148029  0.1947403295937722  0.4222823725472715  1.0000
  C   C8        1.0  0.751923040400157  0.2687508507729883  0.4192817630024157  1.0000
  Br  Br1       1.0  0.8685691808022703  0.15866438909973146  0.4237451991217589  1.0000
  H   H1        1.0  0.6679220736260427  0.6142099895351705  0.4052753275976695  1.0000
  H   H2        1.0  0.5084857098200168  0.21220836248060707  0.42157396587903984  1.0000
  H   H3        1.0  0.6612287254808538  0.07779643892286982  0.42702356960348564  1.0000
  C   C9        1.0  0.1638942893734976  0.1402271378782345  0.40810376957032624  1.0000
  C   C10       1.0  0.1412977341020536  0.22225541941687021  0.2792189720983189  1.0000
  C   C11       1.0  0.12772072256385947  0.15592365323933088  0.14951620396200083  1.0000
  C   C12       1.0  0.13678829166389028  0.006176943369787799  0.14775877999748044  1.0000
  C   C13       1.0  0.15759306087488345  0.9228106392958375  0.2748731180007242  1.0000
  C   C14       1.0  0.16982305464126823  0.9873978972812638  0.4065449644533272  1.0000
  N   N3        1.0  0.10571387743955207  0.24103792794616008  0.01921486479058232  1.0000
  H   H4        1.0  0.273525355381272  0.2230579991847219  0.7235230234653771  1.0000
  H   H5        1.0  0.13642405511016165  0.33883938818630455  0.27866548047126116  1.0000
  H   H6        1.0  0.12679948937548202  0.95370336841089  0.047965573059433275  1.0000
  H   H7        1.0  0.1618399156668049  0.8066089862492084  0.27074532120325756  1.0000
  H   H8        1.0  0.23975357359844218  0.6924855202587044  0.6211418651944667  1.0000
  H   H9        1.0  0.09905616289138397  0.3531068550104608  0.019168236633073654  1.0000
  H   H10       1.0  0.09582268456581655  0.19260489306860865  0.9217918691010163  1.0000
  C   C15       1.0  0.1656726155670407  0.559657214964633  0.984090850908959  1.0000
  C   C16       1.0  0.08171926803199625  0.6021858596424698  0.053903664679397334  1.0000
  C   C17       1.0  0.0026053401568093496  0.6563102533711245  0.9746239318939485  1.0000
  C   C18       1.0  0.005595354528596053  0.6693458106030195  0.8233198678986708  1.0000
  C   C19       1.0  0.08823183824598435  0.6250747933338282  0.7523704085603122  1.0000
  C   C20       1.0  0.16804468064346434  0.5679677379221442  0.8305579042313465  1.0000
  C   C21       1.0  0.9228836461381315  0.7274345073809345  0.7378244604511011  1.0000
  O   O1        1.0  0.8474441604044336  0.7675737961847966  0.7984588707257498  1.0000
  H   H11       1.0  0.4015145137324492  0.5230667942661393  0.09094053979274408  1.0000
  H   H12       1.0  0.9394355649106584  0.6892885190022013  0.031966570512195196  1.0000
  H   H13       1.0  0.08940044667153901  0.6320659382259637  0.6352008520708972  1.0000
  H   H14       1.0  0.32653767158271196  0.53809477499973  0.5531428733391293  1.0000
  H   H15       1.0  0.9263761604280618  0.7361924310590784  0.6209387378295639  1.0000
  Zn  Zn1       1.0  0.06097966852450165  0.5637424133947035  0.4073293558294351  1.0000
  Zn  Zn2       1.0  0.2727284021828338  0.5638818770852658  0.4073186865281426  1.0000
  C   C22       1.0  0.1675539638836534  0.5606504401900985  0.6705680377181746  1.0000
  C   C23       1.0  0.16615643224682142  0.5669756732355427  0.1440801426329612  1.0000
  C   C24       1.0  0.16868131157407176  0.827208169032535  0.40109631349942787  1.0000
  C   C25       1.0  0.16502900038832213  0.30041621205363533  0.4135519468835054  1.0000
  O   O2        1.0  0.2466763023895071  0.5694784474248322  0.197769973090967  1.0000
  O   O3        1.0  0.24774647427733942  0.5582524234524415  0.6168696966248803  1.0000
  O   O4        1.0  0.24865574273617708  0.7735011745751785  0.3992693700558603  1.0000
  O   O5        1.0  0.245766961444551  0.354229705512298  0.415370191580716  1.0000
  O   O6        1.0  0.08794103700332445  0.7733945849215755  0.3992778507729189  1.0000
  O   O7        1.0  0.08703178045310689  0.558147566092213  0.6168780973061982  1.0000
  O   O8        1.0  0.08596160342184  0.5693735227857539  0.1977766410620918  1.0000
  O   O9        1.0  0.08505226270354103  0.35412477161692113  0.4153769676271688  1.0000
