data_image0
_chemical_formula_structural       NC5NC3F3CH3C6NH7C6BrH4Zn2C4O8
_chemical_formula_sum              "N3 C25 F3 H14 Br1 Zn2 O8"
_cell_length_a       13.85151926108384
_cell_length_b       9.274771166103582
_cell_length_c       9.27656775626242
_cell_angle_alpha    86.01325923358289
_cell_angle_beta     90.18621463620289
_cell_angle_gamma    90.59705350001695

_space_group_name_H-M_alt    "P 1"
_space_group_IT_number       1

loop_
  _space_group_symop_operation_xyz
  'x, y, z'

loop_
  _atom_site_type_symbol
  _atom_site_label
  _atom_site_symmetry_multiplicity
  _atom_site_fract_x
  _atom_site_fract_y
  _atom_site_fract_z
  _atom_site_occupancy
  N   N1        1.0  0.9165223687878891  0.5630612192077378  0.40778088014788993  1.0000
  C   C1        1.0  0.8442696900983105  0.554591000692904  0.4702334436241782  1.0000
  C   C2        1.0  0.7543816802210543  0.5440528909166942  0.5479333667757511  1.0000
  C   C3        1.0  0.6667504717700987  0.5525367738222415  0.4724288688135203  1.0000
  C   C4        1.0  0.5793296905804824  0.5440528775717766  0.547933346751138  1.0000
  C   C5        1.0  0.4892504383027473  0.5545910177672317  0.47023353761593484  1.0000
  N   N2        1.0  0.41684418314698074  0.5630611823433003  0.40778098561829923  1.0000
  C   C6        1.0  0.5795242895346074  0.5260886331488588  0.6991201069399946  1.0000
  C   C7        1.0  0.667145155860406  0.5144266086838809  0.7758919263631232  1.0000
  C   C8        1.0  0.6674023423925193  0.5004423910373519  0.9388614722716292  1.0000
  F   F1        1.0  0.7479307175173344  0.4261166624967569  0.9905747485880337  1.0000
  F   F2        1.0  0.5860619028659996  0.42611663286293733  0.9905748478919892  1.0000
  F   F3        1.0  0.6684656654240086  0.6367926288736481  0.9903072526257632  1.0000
  C   C9        1.0  0.7545946157551698  0.5260885380667779  0.6991201267214158  1.0000
  H   H1        1.0  0.6665938393960793  0.5666055641849521  0.3553744239633141  1.0000
  H   H2        1.0  0.5114942912453043  0.5214740282666943  0.7567533686300152  1.0000
  H   H3        1.0  0.8228110441081725  0.5214739469481688  0.7567533277571035  1.0000
  C   C10       1.0  0.16372573270514734  0.13947235839325842  0.4085662735023621  1.0000
  C   C11       1.0  0.14122097717903317  0.221518754715442  0.2797156905012885  1.0000
  C   C12       1.0  0.1277280777687415  0.1551990047086247  0.15004760740852974  1.0000
  C   C13       1.0  0.13678843638066351  0.005446184007654291  0.14829090929290745  1.0000
  C   C14       1.0  0.15750400393210118  0.9220630185432492  0.27537146184899153  1.0000
  C   C15       1.0  0.16965001044309114  0.986639131147393  0.40700805373142024  1.0000
  N   N3        1.0  0.10581328492586084  0.24033102498693013  0.01978088193025496  1.0000
  H   H4        1.0  0.2730831002662457  0.22222204481007687  0.723903297138068  1.0000
  H   H5        1.0  0.1363520036795487  0.3381060404108953  0.27916221369456573  1.0000
  H   H6        1.0  0.12686393711473135  0.9529815441499941  0.04852440164899786  1.0000
  H   H7        1.0  0.1617493125119379  0.8058585750280503  0.27124489831525334  1.0000
  H   H8        1.0  0.23939852113789573  0.6916746847455795  0.621548879931112  1.0000
  H   H9        1.0  0.09916160527860507  0.35240446778827805  0.01973408223748096  1.0000
  H   H10       1.0  0.09598499383122118  0.19190680768151935  0.9223839475317058  1.0000
  C   C16       1.0  0.16573736536114803  0.5589104135847169  0.9846680209269225  1.0000
  C   C17       1.0  0.08019011641046506  0.5936358172938103  0.055214974393335  1.0000
  C   C18       1.0  0.999015984239862  0.6402430063559303  0.9764282458045628  1.0000
  C   C19       1.0  0.0018648835188628272  0.6530687866514664  0.8259088111106139  1.0000
  C   C20       1.0  0.08550858236601312  0.616785177826654  0.7536376611580433  1.0000
  C   C21       1.0  0.16763839562369331  0.5672010853889506  0.8309062943818768  1.0000
  Br  Br1       1.0  0.8907714330934199  0.7180180845019586  0.7185391039732076  1.0000
  H   H11       1.0  0.2976317463413549  0.42789317129731685  0.2757432157345343  1.0000
  H   H12       1.0  0.9341220547061652  0.6677450183612075  0.03269503833741094  1.0000
  H   H13       1.0  0.08540816742151748  0.6241534289087314  0.6365736450569499  1.0000
  H   H14       1.0  0.326381956561391  0.552306202237844  0.5515389799333006  1.0000
  Zn  Zn1       1.0  0.060904428771257915  0.563057439110527  0.40778922267700185  1.0000
  Zn  Zn2       1.0  0.2724620498225756  0.5630533120539891  0.4077844128211905  1.0000
  C   C22       1.0  0.16723669370724736  0.5598874940917856  0.6709596949347265  1.0000
  C   C23       1.0  0.16613210813441232  0.5662250784384975  0.14461407858403885  1.0000
  C   C24       1.0  0.16851231654166068  0.8264502951536146  0.40156084404924997  1.0000
  C   C25       1.0  0.1648564011635468  0.2996605450925407  0.414013009477352  1.0000
  O   O1        1.0  0.24654955805533418  0.5686720876117641  0.19829162291892422  1.0000
  O   O2        1.0  0.24738657451268511  0.5574362603304623  0.617278087259459  1.0000
  O   O3        1.0  0.24841557716912765  0.7726891080337752  0.399736606393706  1.0000
  O   O4        1.0  0.24552048303807558  0.3534192491701495  0.41583299573261767  1.0000
  O   O5        1.0  0.0878459233615192  0.7726915019972713  0.3997406397596343  1.0000
  O   O6        1.0  0.08681693264729008  0.5574403865809909  0.6172820406116115  1.0000
  O   O7        1.0  0.08597991201110244  0.5686761466244614  0.19829384402911795  1.0000
  O   O8        1.0  0.08495083716042062  0.35342329892405266  0.41583532488893127  1.0000
