data_image0
_chemical_formula_structural       NC5OC5NC4H8C9H8C7ONH5Zn2C4O8
_chemical_formula_sum              "N3 C34 O10 H21 Zn2"
_cell_length_a       19.189071930511275
_cell_length_b       9.275152443626249
_cell_length_c       9.273042158839656
_cell_angle_alpha    85.96394158152518
_cell_angle_beta     90.07135709723086
_cell_angle_gamma    90.56463589314393

_space_group_name_H-M_alt    "P 1"
_space_group_IT_number       1

loop_
  _space_group_symop_operation_xyz
  'x, y, z'

loop_
  _atom_site_type_symbol
  _atom_site_label
  _atom_site_symmetry_multiplicity
  _atom_site_fract_x
  _atom_site_fract_y
  _atom_site_fract_z
  _atom_site_occupancy
  N   N1        1.0  0.6625174224382978  0.5618124455779223  0.404223070278253  1.0000
  C   C1        1.0  0.6082912076699362  0.6128256333326503  0.383745921874199  1.0000
  C   C2        1.0  0.5408407801379825  0.676277534612354  0.3582754293376984  1.0000
  C   C3        1.0  0.5315713444306266  0.7827530166557773  0.2453485573359011  1.0000
  C   C4        1.0  0.4660510426850363  0.8444710263777611  0.2207463563704375  1.0000
  C   C5        1.0  0.40913958572358183  0.799582705013733  0.30756730009755207  1.0000
  O   O1        1.0  0.34446570493953527  0.8653081292593658  0.28043753196398247  1.0000
  C   C6        1.0  0.2791970063867578  0.7993655582094736  0.30694185431251153  1.0000
  C   C7        1.0  0.2228793747115305  0.8859036165315658  0.3402273373746416  1.0000
  C   C8        1.0  0.1568029021206186  0.824512647101961  0.36577253326402226  1.0000
  C   C9        1.0  0.1463803114756531  0.675768388064901  0.35680757617335135  1.0000
  C   C10       1.0  0.0783574713512808  0.6125451062397232  0.3829370719441918  1.0000
  N   N2        1.0  0.02367110845197731  0.5617157891768871  0.40394451312712065  1.0000
  C   C11       1.0  0.20222126579495517  0.588865488818936  0.3213953048677496  1.0000
  C   C12       1.0  0.2682891308324674  0.6503007783532377  0.29589838551873604  1.0000
  C   C13       1.0  0.41889754069502194  0.6941287696572387  0.4222868352603948  1.0000
  C   C14       1.0  0.48440896431549696  0.6324069182424319  0.44695717101741644  1.0000
  H   H1        1.0  0.574936965301133  0.8181435161015661  0.17653532227831703  1.0000
  H   H2        1.0  0.4593461215261805  0.9269045841936957  0.13337105050401776  1.0000
  H   H3        1.0  0.2304768877692488  0.0010294861719701857  0.3471284840495992  1.0000
  H   H4        1.0  0.11390633332078928  0.8929604207377929  0.3922882756377646  1.0000
  H   H5        1.0  0.19461659228353093  0.4738913318144203  0.312745755690516  1.0000
  H   H6        1.0  0.3104745420417676  0.5820449225706574  0.2655931938800329  1.0000
  H   H7        1.0  0.3762548498859367  0.6611854999428046  0.4938143835740709  1.0000
  H   H8        1.0  0.49112707648162285  0.5511500371808062  0.535539814741872  1.0000
  C   C15       1.0  0.8410430941451951  0.13814789232238622  0.4055568530536955  1.0000
  C   C16       1.0  0.815801183703558  0.21960423143921262  0.28312818922985405  1.0000
  C   C17       1.0  0.7970351222889335  0.15285394378586248  0.15840199574582647  1.0000
  C   C18       1.0  0.8032158803875782  0.00346018653030633  0.15363486527966463  1.0000
  C   C19       1.0  0.8270941934067987  0.9203051647820103  0.27502973553883625  1.0000
  C   C20       1.0  0.8451520888849274  0.9853694430699633  0.40262317440248596  1.0000
  C   C21       1.0  0.7842271895100391  0.9349550670237643  0.024472704647367394  1.0000
  C   C22       1.0  0.7683285897866109  0.8775646010574508  0.9163196451888496  1.0000
  C   C23       1.0  0.7490387795946565  0.8079194202084801  0.7850948751723736  1.0000
  H   H9        1.0  0.9414194795203237  0.2228045758765325  0.6933300180107154  1.0000
  H   H10       1.0  0.8121298779655477  0.33611792393342554  0.282677646809943  1.0000
  H   H11       1.0  0.7783248786146603  0.21811542892832803  0.06506853211814567  1.0000
  H   H12       1.0  0.8300249025393593  0.8039519977302757  0.27100669505598685  1.0000
  H   H13       1.0  0.9105011199373176  0.6921264080369703  0.5994529068265151  1.0000
  H   H14       1.0  0.7617896984304033  0.6913360155792843  0.7985501721035662  1.0000
  H   H15       1.0  0.6923027132323644  0.8203093186430472  0.7654069268528612  1.0000
  H   H16       1.0  0.7783901328764735  0.8592773711292803  0.6917769695376448  1.0000
  C   C24       1.0  0.8427427317025094  0.5573004357604755  0.9808408213974386  1.0000
  C   C25       1.0  0.7787808836390395  0.5665035571760595  0.05353919306103072  1.0000
  C   C26       1.0  0.7161451427006356  0.5896596726915482  0.9772513092394508  1.0000
  C   C27       1.0  0.7178491491177776  0.6018701670014738  0.8257090577467832  1.0000
  C   C28       1.0  0.7806598898111928  0.5905493928648591  0.7520094692115342  1.0000
  C   C29       1.0  0.843452466705981  0.5662168278128356  0.8273392708899325  1.0000
  C   C30       1.0  0.6496011340855686  0.5996360343889124  0.05712821346071429  1.0000
  O   O2        1.0  0.6446747498207972  0.5438134900114668  0.18469572558815317  1.0000
  N   N3        1.0  0.5906791810289849  0.6728362067792149  0.9933840625361934  1.0000
  H   H17       1.0  0.012085837467888721  0.6123563286421321  0.0804796614691019  1.0000
  H   H18       1.0  0.6705288378349781  0.6161457831480064  0.7630730916964978  1.0000
  H   H19       1.0  0.9575626062306409  0.5966065742708329  0.544224245406312  1.0000
  H   H20       1.0  0.594337360993552  0.7351284491662937  0.8954999452092953  1.0000
  H   H21       1.0  0.5435769284868044  0.672686439642558  0.049663418551326055  1.0000
  Zn  Zn1       1.0  0.766738571961367  0.5617807918981386  0.4041510150336798  1.0000
  Zn  Zn2       1.0  0.9194499291682305  0.561735810227955  0.40402839351933406  1.0000
  C   C31       1.0  0.8432888671466822  0.5587846598380672  0.6673528151529453  1.0000
  C   C32       1.0  0.8429013105324109  0.5647337634299368  0.14082672722277234  1.0000
  C   C33       1.0  0.84436699452875  0.8251660108733844  0.3974342474121557  1.0000
  C   C34       1.0  0.8418231226993494  0.2983506800691744  0.4107453778488379  1.0000
  O   O3        1.0  0.9009076647117957  0.5672050924082475  0.19447294627326683  1.0000
  O   O4        1.0  0.901186893961184  0.5562780981881565  0.6136131180783893  1.0000
  O   O5        1.0  0.902056715477117  0.7713844240172649  0.39565196034255967  1.0000
  O   O6        1.0  0.9000377910452639  0.3520987757755519  0.4124339959472709  1.0000
  O   O7        1.0  0.7861506579714437  0.7714178263673828  0.39574541264000085  1.0000
  O   O8        1.0  0.7852808447936138  0.5563132328805596  0.6137064875248124  1.0000
  O   O9        1.0  0.7850016138939135  0.5672401585784701  0.1945645830267182  1.0000
  O   O10       1.0  0.78413174026509  0.35213383276620225  0.41252574079680615  1.0000
