data_image0
_chemical_formula_structural       NC5OC5NC4H8C9H10C9H8Zn2C4O8
_chemical_formula_sum              "N2 C36 O9 H26 Zn2"
_cell_length_a       19.189071930511275
_cell_length_b       10.297183801781406
_cell_length_c       9.275155815604965
_cell_angle_alpha    86.02609203372302
_cell_angle_beta     90.33561097957745
_cell_angle_gamma    89.98878219536965

_space_group_name_H-M_alt    "P 1"
_space_group_IT_number       1

loop_
  _space_group_symop_operation_xyz
  'x, y, z'

loop_
  _atom_site_type_symbol
  _atom_site_label
  _atom_site_symmetry_multiplicity
  _atom_site_fract_x
  _atom_site_fract_y
  _atom_site_fract_z
  _atom_site_occupancy
  N   N1        1.0  0.6513859911356402  0.4091882434744382  0.4090290040100584  1.0000
  C   C1        1.0  0.5968667415998296  0.4551616084897949  0.3887062874564262  1.0000
  C   C2        1.0  0.5290518269245413  0.5123448110351121  0.36342788242369806  1.0000
  C   C3        1.0  0.519014293210734  0.6084223910728839  0.2508289840433411  1.0000
  C   C4        1.0  0.4531398484066866  0.6640427032814904  0.22641360773663544  1.0000
  C   C5        1.0  0.3966396285809119  0.6234702029605332  0.3130931314646345  1.0000
  O   O1        1.0  0.3315865362856385  0.6827036072123052  0.28616239346649586  1.0000
  C   C6        1.0  0.2666967079324787  0.6232757405419224  0.31246708558791103  1.0000
  C   C7        1.0  0.2100336232564652  0.7011467629891825  0.346009077440236  1.0000
  C   C8        1.0  0.1443118100492389  0.6458193248212014  0.3713683523741771  1.0000
  C   C9        1.0  0.1345905549455026  0.5118888551772596  0.3619586223272342  1.0000
  C   C10       1.0  0.06693256245221421  0.45491038831643116  0.3878966623497741  1.0000
  N   N2        1.0  0.012539524870920003  0.40910168462297947  0.40875017975882666  1.0000
  C   C11       1.0  0.1907739901470228  0.4336929645074723  0.3262889204601324  1.0000
  C   C12       1.0  0.2564870885004487  0.4890602300257101  0.30097805092642604  1.0000
  C   C13       1.0  0.4071647241570288  0.5283094398487218  0.42748760848566336  1.0000
  C   C14       1.0  0.4730304613630251  0.47268555040546856  0.4519711026016868  1.0000
  H   H1        1.0  0.5620548814685895  0.640410871148504  0.18212727537516638  1.0000
  H   H2        1.0  0.44584038204854665  0.7384260904909996  0.1392922155316283  1.0000
  H   H3        1.0  0.21708822909613482  0.8048070424075302  0.3532544748661688  1.0000
  H   H4        1.0  0.1011424232255614  0.7074115311405234  0.39808696670460536  1.0000
  H   H5        1.0  0.1837075903147014  0.33017232555357995  0.31729571544165824  1.0000
  H   H6        1.0  0.2989359389906879  0.427647396611351  0.2704708667033995  1.0000
  H   H7        1.0  0.36484124953116936  0.49852002840075005  0.49891074177634204  1.0000
  H   H8        1.0  0.4803401041355023  0.3993596880904402  0.5403032598083999  1.0000
  C   C15       1.0  0.8319691588225675  0.02767100427250547  0.40909379157629944  1.0000
  C   C16       1.0  0.8294800923283734  0.03635494397389904  0.2574344820844279  1.0000
  C   C17       1.0  0.8282047095845504  0.9241874928744702  0.17973498296869495  1.0000
  C   C18       1.0  0.8294701550660467  0.8011792930414395  0.25684667328156474  1.0000
  C   C19       1.0  0.8319630966977594  0.7906090601011889  0.4086978090767579  1.0000
  C   C20       1.0  0.8331956636326547  0.9043233575747659  0.4838301192258859  1.0000
  C   C21       1.0  0.8255124156034874  0.943011981702655  0.015704731009135612  1.0000
  C   C22       1.0  0.7844650823910126  0.8436824516796528  0.9355067461658262  1.0000
  C   C23       1.0  0.8638436907305493  0.8439361261993444  0.9308670285221078  1.0000
  H   H9        1.0  0.8329348930515564  0.35186325617008984  0.4675329829124142  1.0000
  H   H10       1.0  0.8285193216746827  0.131129789112284  0.19888562122472564  1.0000
  H   H11       1.0  0.8285343741757212  0.7131381783788513  0.19992370426493022  1.0000
  H   H12       1.0  0.835115681415942  0.8968960729568136  0.6008384615053564  1.0000
  H   H13       1.0  0.8366623043441624  0.5634284186973589  0.6955018539230632  1.0000
  H   H14       1.0  0.8246477047758821  0.043318711100224463  0.9629825239750781  1.0000
  H   H15       1.0  0.7614087330811485  0.7605593262418454  0.0011132635814099484  1.0000
  H   H16       1.0  0.7595720868462638  0.8837702701278409  0.8335562519398846  1.0000
  H   H17       1.0  0.8890055856096895  0.760967899960267  0.9936559189976242  1.0000
  H   H18       1.0  0.8853439944497062  0.8841698285969504  0.8262034937421032  1.0000
  C   C24       1.0  0.8306893086096335  0.40585677935790976  0.9856672703892103  1.0000
  C   C25       1.0  0.7761727501234115  0.4691674452302674  0.05349138118150721  1.0000
  C   C26       1.0  0.7263238250484699  0.5411104623048626  0.9722077671846402  1.0000
  C   C27       1.0  0.7300670086591106  0.5512492830213107  0.8216178171972558  1.0000
  C   C28       1.0  0.7831812161253479  0.487241001947462  0.7520867865810941  1.0000
  C   C29       1.0  0.8332429205375159  0.4124232416895106  0.8321243160484629  1.0000
  C   C30       1.0  0.6788094017645483  0.6262275667881163  0.7380210973119201  1.0000
  C   C31       1.0  0.6358903899039406  0.689011639629652  0.6679936092432792  1.0000
  C   C32       1.0  0.5838158866249771  0.7651894963369472  0.5830156158398436  1.0000
  H   H19       1.0  0.9924419120945253  0.30100927820628187  0.09855462772059709  1.0000
  H   H20       1.0  0.7730419286686934  0.4655672264080335  0.17028720542320586  1.0000
  H   H21       1.0  0.6851995513844023  0.5899461531509497  0.027027208182703433  1.0000
  H   H22       1.0  0.7844687581740152  0.4933491963258734  0.6349363263164205  1.0000
  H   H23       1.0  0.9411706241367861  0.3371688658457683  0.5584976431694256  1.0000
  H   H24       1.0  0.5979769431421217  0.7689184933215671  0.4670037573651737  1.0000
  H   H25       1.0  0.5319142354974365  0.7189432018086681  0.5981059771351283  1.0000
  H   H26       1.0  0.5820514424464392  0.865497088979988  0.6194696461402716  1.0000
  Zn  Zn1       1.0  0.7556071335230977  0.40915986348180494  0.40895685975312523  1.0000
  Zn  Zn2       1.0  0.9083184354966909  0.40911956886081957  0.4088341133728959  1.0000
  C   C33       1.0  0.8327587303130055  0.40600696769579686  0.6721285318234262  1.0000
  C   C34       1.0  0.8311685067231566  0.4122741043753668  0.14566258056891757  1.0000
  C   C35       1.0  0.8319433194572864  0.6463529714713654  0.4030294785922621  1.0000
  C   C36       1.0  0.8319838657134174  0.17192654047703823  0.41476171149032887  1.0000
  O   O2        1.0  0.8892824732700441  0.4144068583726701  0.19931188957007762  1.0000
  O   O3        1.0  0.8905491072212521  0.4038426478025239  0.6183856467884881  1.0000
  O   O4        1.0  0.8898898759279293  0.5979250972730994  0.4010862573108209  1.0000
  O   O5        1.0  0.8899416521272621  0.2203244173703165  0.4166111710221483  1.0000
  O   O6        1.0  0.7739838647796308  0.5979550149874141  0.4011798021381783  1.0000
  O   O7        1.0  0.7746430958255167  0.4038741256547049  0.6184791139599037  1.0000
  O   O8        1.0  0.7733764566934888  0.4144382775141138  0.19940362398255873  1.0000
  O   O9        1.0  0.7740356358739161  0.22035582805864443  0.41670301349453154  1.0000
