data_image0
_chemical_formula_structural       NC9NC3OH6C6NO2H4C7ONH7Zn2C4O8
_chemical_formula_sum              "N4 C29 O12 H17 Zn2"
_cell_length_a       15.78231758774541
_cell_length_b       9.273392599741051
_cell_length_c       10.297855452804892
_cell_angle_alpha    85.66470054647645
_cell_angle_beta     90.0760746706638
_cell_angle_gamma    89.0365174922554

_space_group_name_H-M_alt    "P 1"
_space_group_IT_number       1

loop_
  _space_group_symop_operation_xyz
  'x, y, z'

loop_
  _atom_site_type_symbol
  _atom_site_label
  _atom_site_symmetry_multiplicity
  _atom_site_fract_x
  _atom_site_fract_y
  _atom_site_fract_z
  _atom_site_occupancy
  N   N1        1.0  0.7884068117844555  0.5701483689052704  0.5726647861846224  1.0000
  C   C1        1.0  0.740429557040793  0.4789976915311898  0.5965736682964926  1.0000
  C   C2        1.0  0.6808638497867463  0.36585754460382036  0.6262507530068642  1.0000
  C   C3        1.0  0.7013914629465969  0.22373531759968993  0.6634505290789163  1.0000
  C   C4        1.0  0.6250801022040766  0.15485729493249822  0.6815535620098141  1.0000
  C   C5        1.0  0.5626592279381099  0.26004399318028826  0.6540627582961639  1.0000
  C   C6        1.0  0.4696866061778168  0.2405965458964372  0.6592371713196176  1.0000
  C   C7        1.0  0.415215746729794  0.3598389145083418  0.6279078365284244  1.0000
  C   C8        1.0  0.3271063124743901  0.34389247129178324  0.6321578932064806  1.0000
  C   C9        1.0  0.2719178400227394  0.46660426156740487  0.5999087671792973  1.0000
  N   N2        1.0  0.22755929940300418  0.5652487094578429  0.5739833427717967  1.0000
  C   C10       1.0  0.29278753046354417  0.20852618316391358  0.6677859462705803  1.0000
  C   C11       1.0  0.3463259565926734  0.08953034316356123  0.6990548664621857  1.0000
  C   C12       1.0  0.4342523948642116  0.1050387124829322  0.6949202935230769  1.0000
  O   O1        1.0  0.598358912836836  0.38470394004169983  0.6213851049759203  1.0000
  H   H1        1.0  0.7641435915948855  0.17580662315723752  0.6759447687969078  1.0000
  H   H2        1.0  0.6170372717350431  0.04160379835256257  0.7112123150891152  1.0000
  H   H3        1.0  0.44118008240534257  0.4651778908558648  0.600178171385369  1.0000
  H   H4        1.0  0.22475343736298029  0.19502037523556148  0.6713834004347243  1.0000
  H   H5        1.0  0.3196269220650282  0.9849115185679511  0.7265953808988391  1.0000
  H   H6        1.0  0.47391248973369854  0.01078562402322582  0.7196957318371823  1.0000
  C   C13       1.0  0.010570312347234927  0.14414132245811562  0.5725150256445799  1.0000
  C   C14       1.0  0.999789401182071  0.22764068359815567  0.4538294093929881  1.0000
  C   C15       1.0  0.9815300547536734  0.1627801429731155  0.33942674402956197  1.0000
  C   C16       1.0  0.9734471041607816  0.012453978303347714  0.34051829388288235  1.0000
  C   C17       1.0  0.9855498834653743  0.9277717501538792  0.45830211107517277  1.0000
  C   C18       1.0  0.005403952728731285  0.9912445493427788  0.5741442942946299  1.0000
  N   N3        1.0  0.953869505500195  0.9461917694896446  0.2223029614060374  1.0000
  O   O2        1.0  0.9427606353887613  0.02944559183637452  0.10695344703615017  1.0000
  O   O3        1.0  0.9464074544793886  0.8123417159815319  0.22248792215769359  1.0000
  H   H7        1.0  0.9932867211986351  0.22072684262734232  0.8912593969052219  1.0000
  H   H8        1.0  0.9728792276829121  0.23081842764996874  0.250127687930622  1.0000
  H   H9        1.0  0.9814568776945851  0.8112150128896328  0.45921441947248587  1.0000
  H   H10       1.0  0.9966539070144023  0.6931980451109752  0.7895735170173779  1.0000
  C   C19       1.0  0.008019497832131295  0.5678359620755822  0.19188803849452649  1.0000
  C   C20       1.0  0.9211313040127841  0.6035752603594419  0.18830555584938669  1.0000
  C   C21       1.0  0.8768823333056166  0.6204621559617178  0.06948777400302286  1.0000
  C   C22       1.0  0.9210302499929881  0.603251947508157  0.9530717098708358  1.0000
  C   C23       1.0  0.007954755578587267  0.5675498996053758  0.9547712925264226  1.0000
  C   C24       1.0  0.05083117955769523  0.5497434271263864  0.07463784084567981  1.0000
  C   C25       1.0  0.7851726237513142  0.6585517854167886  0.068280432270593  1.0000
  O   O4        1.0  0.7534404946330633  0.7204468089264964  0.1621141827645096  1.0000
  N   N4        1.0  0.731183265335562  0.625050067145795  0.9634280710130633  1.0000
  H   H11       1.0  0.17230167842766808  0.5008049135406447  0.4058920129063719  1.0000
  H   H12       1.0  0.8875471056875697  0.6170991854501606  0.27838795829130114  1.0000
  H   H13       1.0  0.888378660705843  0.6202466316409494  0.860614752362307  1.0000
  H   H14       1.0  0.11779625873550342  0.5221951701693837  0.07664548520890468  1.0000
  H   H15       1.0  0.17254767879032618  0.502340420169861  0.7505543873539744  1.0000
  H   H16       1.0  0.6677127929578422  0.6587943296388381  0.9622152530627379  1.0000
  H   H17       1.0  0.7517242606901652  0.5590236349837812  0.8916743228858643  1.0000
  Zn  Zn1       1.0  0.9151367527114777  0.568730577491044  0.5730527806184518  1.0000
  Zn  Zn2       1.0  0.10082940087820715  0.5666547248730405  0.5736059440394459  1.0000
  C   C26       1.0  0.00800015327075453  0.5618580203628079  0.8105589779378524  1.0000
  C   C27       1.0  0.00796801696681348  0.5735290791741967  0.3360998837516564  1.0000
  C   C28       1.0  0.00637658036752775  0.8311260241146925  0.5686601786118954  1.0000
  C   C29       1.0  0.009591537069002726  0.30425934319641  0.5779987488076593  1.0000
  O   O5        1.0  0.07842017012911784  0.5746456735256233  0.38470860694401904  1.0000
  O   O6        1.0  0.07848443009950551  0.5591648139439009  0.7623697169725454  1.0000
  O   O7        1.0  0.07717242437154855  0.776602142445443  0.5670347250973522  1.0000
  O   O8        1.0  0.07973211243808914  0.35720835608687973  0.5800435012570645  1.0000
  O   O9        1.0  0.9362339777837996  0.7781769469871642  0.5666152232052362  1.0000
  O   O10       1.0  0.9375459729449982  0.560741351421483  0.7619501491547866  1.0000
  O   O11       1.0  0.9374817134700253  0.5762221613257583  0.3842874773313365  1.0000
  O   O12       1.0  0.9387936558301865  0.3587848335341757  0.5796224690109333  1.0000
