data_image0
_chemical_formula_structural       NC9NC3OH6C8H10C6NH7Zn2C4O8
_chemical_formula_sum              "N3 C30 O9 H23 Zn2"
_cell_length_a       15.78231758774541
_cell_length_b       9.275653711864159
_cell_length_c       9.274774538082514
_cell_angle_alpha    85.24959572730752
_cell_angle_beta     90.43038941912484
_cell_angle_gamma    89.08352321082864

_space_group_name_H-M_alt    "P 1"
_space_group_IT_number       1

loop_
  _space_group_symop_operation_xyz
  'x, y, z'

loop_
  _atom_site_type_symbol
  _atom_site_label
  _atom_site_symmetry_multiplicity
  _atom_site_fract_x
  _atom_site_fract_y
  _atom_site_fract_z
  _atom_site_occupancy
  N   N1        1.0  0.7832829495424292  0.5829362364381019  0.41575624072494644  1.0000
  C   C1        1.0  0.735359907919192  0.4915936565117654  0.44222609056640216  1.0000
  C   C2        1.0  0.6758614937711304  0.37821530859878155  0.47508199765216275  1.0000
  C   C3        1.0  0.6964733102160239  0.23579460439686215  0.5162660649141755  1.0000
  C   C4        1.0  0.6202030653319873  0.16677123174510222  0.5363083235377415  1.0000
  C   C5        1.0  0.557720041349423  0.2721784517538002  0.5058732743502246  1.0000
  C   C6        1.0  0.4647592888137639  0.2526893763406056  0.5116022280768865  1.0000
  C   C7        1.0  0.4102172938347401  0.3721832752797669  0.4769168878915196  1.0000
  C   C8        1.0  0.3221176216090509  0.3562026311197286  0.48162245016492206  1.0000
  C   C9        1.0  0.26685590987066415  0.4791733471432773  0.44591875789360663  1.0000
  N   N2        1.0  0.2224384890002464  0.5780259499537321  0.41721616488685387  1.0000
  C   C10       1.0  0.28787985141918815  0.2205502183772154  0.521067234893474  1.0000
  C   C11       1.0  0.341489283989045  0.10130332738955895  0.5556857060813651  1.0000
  C   C12       1.0  0.4294062231607522  0.11684496997615355  0.5511079997158748  1.0000
  O   O1        1.0  0.5933456685708364  0.39710065575954895  0.4696954802755191  1.0000
  H   H1        1.0  0.759253625391268  0.18776572763260857  0.5300983014408549  1.0000
  H   H2        1.0  0.6122273970708986  0.053279744336616634  0.5691437450872013  1.0000
  H   H3        1.0  0.43611856846437513  0.4777449514076067  0.4462166042087772  1.0000
  H   H4        1.0  0.21985401749123612  0.20701546385031053  0.5250502428190598  1.0000
  H   H5        1.0  0.314852881137329  0.9964633215488495  0.5861765774267718  1.0000
  H   H6        1.0  0.4691225941766913  0.022392954406911688  0.578537434823384  1.0000
  C   C13       1.0  0.005238146798256292  0.15707710256275997  0.41514733257940817  1.0000
  C   C14       1.0  0.9848828755815658  0.2418305681234989  0.286367608811658  1.0000
  C   C15       1.0  0.9569075509575796  0.1779876766160364  0.16314789871031854  1.0000
  C   C16       1.0  0.9505444387996045  0.027424981745759244  0.1677381002093406  1.0000
  C   C17       1.0  0.9718040450996048  0.9414981389655221  0.29373955500469306  1.0000
  C   C18       1.0  0.0004914757271206023  0.003873775239232381  0.41783749748764554  1.0000
  C   C19       1.0  0.9365600593896787  0.27019977780711585  0.025571199735193062  1.0000
  C   C20       1.0  0.01548871106515182  0.2919642816899475  0.9329618402768123  1.0000
  H   H7        1.0  0.08288676214394479  0.4190123068409226  0.6154390830336165  1.0000
  H   H8        1.0  0.9889260783295573  0.358637877272017  0.2824929241724366  1.0000
  H   H9        1.0  0.9299086919152524  0.9762385359778528  0.07300600612396792  1.0000
  H   H10       1.0  0.9678822481204381  0.8250785360989041  0.292845575925041  1.0000
  H   H11       1.0  0.009330851438149138  0.7025970088422896  0.6558552532498033  1.0000
  H   H12       1.0  0.8869315660623539  0.21842032767690767  0.9626502197191443  1.0000
  H   H13       1.0  0.910936400503907  0.3774271064038909  0.051065969149718185  1.0000
  H   H14       1.0  0.06508718972795324  0.3470877478860801  0.9927094105367054  1.0000
  H   H15       1.0  0.040815574506777974  0.18603298666309184  0.9033494891461586  1.0000
  H   H16       1.0  0.9991409040131494  0.3600825336290059  0.8321800524169846  1.0000
  C   C21       1.0  0.0013233833572723324  0.5841801643648861  0.9926827747697776  1.0000
  C   C22       1.0  0.06089067810050293  0.6685941504995975  0.05988919776016477  1.0000
  C   C23       1.0  0.12432618417262302  0.7410886475659675  0.9795691003024998  1.0000
  C   C24       1.0  0.12870962896925198  0.7294954031467157  0.8305693647348962  1.0000
  C   C25       1.0  0.0693963974599503  0.6482545926708247  0.7616713734859486  1.0000
  C   C26       1.0  0.004406240266378695  0.5767707097320582  0.8403020810273185  1.0000
  N   N3        1.0  0.18486740992243178  0.8252911660876991  0.049783365099637766  1.0000
  H   H17       1.0  0.8762396149457058  0.30374321544191174  0.11728659879088911  1.0000
  H   H18       1.0  0.05932700838694657  0.6754494296883664  0.1759259807774394  1.0000
  H   H19       1.0  0.1776911773790597  0.7846509263956654  0.7673794368173441  1.0000
  H   H20       1.0  0.07319754397304873  0.6442017125204371  0.64549814404316  1.0000
  H   H21       1.0  0.9175308351050413  0.3923050215660959  0.5733388902124485  1.0000
  H   H22       1.0  0.18235600613257197  0.8343603687910184  0.16117383233584404  1.0000
  H   H23       1.0  0.23263222628600932  0.879326533024313  0.9908744538232349  1.0000
  Zn  Zn1       1.0  0.9100138001788558  0.5815153097014714  0.41618585844556266  1.0000
  Zn  Zn2       1.0  0.09570771874403267  0.5794350058030056  0.4167983075401578  1.0000
  C   C27       1.0  0.0038538257966562713  0.5724273792773151  0.6800656302533719  1.0000
  C   C28       1.0  0.0018697112156733596  0.5885247315024442  0.15291868985138612  1.0000
  C   C29       1.0  0.001363425554550706  0.8438615285022867  0.4115779157215562  1.0000
  C   C30       1.0  0.004360058083461734  0.3170888500335649  0.4214064756147904  1.0000
  O   O2        1.0  0.07252297343866164  0.5891870532072034  0.20692772798206893  1.0000
  O   O3        1.0  0.07413795568589276  0.5701850709714082  0.6265210079092418  1.0000
  O   O4        1.0  0.07212598148539245  0.7893715767483478  0.4097152804592785  1.0000
  O   O5        1.0  0.07453488382301796  0.3700005594002535  0.42373334704477883  1.0000
  O   O6        1.0  0.9311865717316128  0.7909497568157648  0.40925081872435654  1.0000
  O   O7        1.0  0.9331985359381733  0.5717649839942747  0.6260564747261467  1.0000
  O   O8        1.0  0.9315835477180088  0.5907669311531183  0.2064614594779671  1.0000
  O   O9        1.0  0.9335954585502516  0.37158042608772024  0.4232671867113459  1.0000
