data_image0
_chemical_formula_structural       NC9NC3OH6C6OCH8C7NH3Zn2C4O8
_chemical_formula_sum              "N3 C30 O10 H17 Zn2"
_cell_length_a       15.78231758774541
_cell_length_b       9.273888216677433
_cell_length_c       10.302823150593486
_cell_angle_alpha    85.7605446997574
_cell_angle_beta     90.08385050025007
_cell_angle_gamma    89.05820199757645

_space_group_name_H-M_alt    "P 1"
_space_group_IT_number       1

loop_
  _space_group_symop_operation_xyz
  'x, y, z'

loop_
  _atom_site_type_symbol
  _atom_site_label
  _atom_site_symmetry_multiplicity
  _atom_site_fract_x
  _atom_site_fract_y
  _atom_site_fract_z
  _atom_site_occupancy
  N   N1        1.0  0.7886381574031698  0.5693627319824943  0.5752803114944313  1.0000
  C   C1        1.0  0.740642467065947  0.4782355672308303  0.5990672437586181  1.0000
  C   C2        1.0  0.6810538767888402  0.3651246053145037  0.6285929588876025  1.0000
  C   C3        1.0  0.7015527384470415  0.2230390096135415  0.6656026306756022  1.0000
  C   C4        1.0  0.6252274499262622  0.15417876786195753  0.6836134937915346  1.0000
  C   C5        1.0  0.5628278585643275  0.25933837023056355  0.6562633680542652  1.0000
  C   C6        1.0  0.46985130970583805  0.23989596696738594  0.661411725295632  1.0000
  C   C7        1.0  0.41540456309580764  0.35910755712712544  0.6302419503824482  1.0000
  C   C8        1.0  0.3272919093215493  0.34316525257141717  0.6344706383095802  1.0000
  C   C9        1.0  0.27212825058379086  0.4658453657879329  0.6023857188231565  1.0000
  N   N2        1.0  0.22778965687938488  0.5644643489269973  0.5765922959423713  1.0000
  C   C10       1.0  0.292945759237666  0.20783392812780616  0.6699175242310019  1.0000
  C   C11       1.0  0.34646012275107496  0.08886880457967998  0.7010272122187944  1.0000
  C   C12       1.0  0.43438969198821226  0.1043731484569701  0.696913421642273  1.0000
  O   O1        1.0  0.5985527582023702  0.38396616841183523  0.6237524858859389  1.0000
  H   H1        1.0  0.7642951667434216  0.17512264949511927  0.6780327862169694  1.0000
  H   H2        1.0  0.6171617094277583  0.04095446751745846  0.713120750007112  1.0000
  H   H3        1.0  0.44139019558435527  0.46441932375841494  0.6026532677963287  1.0000
  H   H4        1.0  0.22490893919185828  0.19433162463428477  0.6734968812508493  1.0000
  H   H5        1.0  0.31973993704243475  0.9842770038393843  0.728427707713449  1.0000
  H   H6        1.0  0.4740307282714037  0.010144392683791418  0.7215627326502023  1.0000
  C   C13       1.0  0.010705995760672988  0.14342363755088638  0.5746173264973606  1.0000
  C   C14       1.0  0.9909185045421072  0.22690713362803885  0.45859781458303067  1.0000
  C   C15       1.0  0.9639221776765864  0.16248361733948571  0.3476501677240535  1.0000
  C   C16       1.0  0.9565566313799204  0.01158488919597245  0.352304643377197  1.0000
  C   C17       1.0  0.9772308447717979  0.9268963985098939  0.46582951007313617  1.0000
  C   C18       1.0  0.00572994987813558  0.990392275279714  0.5772664844450046  1.0000
  O   O2        1.0  0.9446482600512385  0.252128486189396  0.23544902869729523  1.0000
  C   C19       1.0  0.9163670004387788  0.2015193294712454  0.11588952764059555  1.0000
  H   H7        1.0  0.017607419941483737  0.2200312332531238  0.8941232673325163  1.0000
  H   H8        1.0  0.9944973725646215  0.34374278385181684  0.4547603778035938  1.0000
  H   H9        1.0  0.9356413464499266  0.9583812308005275  0.26827730635158814  1.0000
  H   H10       1.0  0.9728276055434385  0.8104770944362252  0.4653840557718087  1.0000
  H   H11       1.0  0.013928899320806648  0.6913701700968978  0.7915771096213212  1.0000
  H   H12       1.0  0.8555599901778725  0.14407356271904326  0.13067021823251568  1.0000
  H   H13       1.0  0.9650157599456446  0.1283683902290078  0.07710612530378858  1.0000
  H   H14       1.0  0.9060613296543435  0.2953196933333908  0.0440818690807252  1.0000
  C   C20       1.0  0.008217993073853291  0.56690797603705  0.1946938255100705  1.0000
  C   C21       1.0  0.9193590985793285  0.5783509429328275  0.1926317795171637  1.0000
  C   C22       1.0  0.8751509616637578  0.5840438084452775  0.07450338407924462  1.0000
  C   C23       1.0  0.9193590826553601  0.5783508489494349  0.9573307853248546  1.0000
  C   C24       1.0  0.008217992611907914  0.5669079685506393  0.9571899921000518  1.0000
  C   C25       1.0  0.05218316138778009  0.5612462401382778  0.07641717732872877  1.0000
  C   C26       1.0  0.7840575989234164  0.5957742930262111  0.07351857958176743  1.0000
  N   N3        1.0  0.7108482980652215  0.6052019462179037  0.07272708441030318  1.0000
  H   H15       1.0  0.8843142817779602  0.5828639020440265  0.282677173256221  1.0000
  H   H16       1.0  0.8843143160091067  0.5828637954878721  0.86652763652677  1.0000
  H   H17       1.0  0.12070793994370566  0.552421860826727  0.07715801001289879  1.0000
  Zn  Zn1       1.0  0.9153678129437445  0.5679453123292801  0.575666400909228  1.0000
  Zn  Zn2       1.0  0.101060041996688  0.5658699984324702  0.5762167826681702  1.0000
  C   C27       1.0  0.008249836732920452  0.5611628716269141  0.8130439054263703  1.0000
  C   C28       1.0  0.008180035270542112  0.5726542360722142  0.33883941727859884  1.0000
  C   C29       1.0  0.0066661821266398216  0.8302972235249368  0.5715921889253606  1.0000
  C   C30       1.0  0.009763636692436727  0.30351815224945966  0.5802911973891531  1.0000
  O   O3        1.0  0.0786365664306365  0.5737888711205041  0.38742484199293264  1.0000
  O   O4        1.0  0.07872941719001281  0.5584520334208165  0.7648758306016916  1.0000
  O   O5        1.0  0.07744964610838645  0.7757814368636624  0.5699018630906444  1.0000
  O   O6        1.0  0.07991627408747748  0.35645947870212413  0.5823987120046246  1.0000
  O   O7        1.0  0.9365115174853014  0.7773558327693992  0.5694844713781317  1.0000
  O   O8        1.0  0.9377912783836597  0.5600281619610578  0.7644583750849916  1.0000
  O   O9        1.0  0.9376984279759363  0.5753649494058553  0.38700582541325823  1.0000
  O   O10       1.0  0.9389781356899087  0.3580355466727827  0.5819797927296633  1.0000
