data_image0
_chemical_formula_structural       NC5OC5NC4H8C6NH7C9H8Zn2C4O8
_chemical_formula_sum              "N3 C33 O9 H23 Zn2"
_cell_length_a       19.189071930511275
_cell_length_b       9.274771166103582
_cell_length_c       9.275155815604963
_cell_angle_alpha    85.94411296578332
_cell_angle_beta     90.33561097957745
_cell_angle_gamma    90.58817672672019

_space_group_name_H-M_alt    "P 1"
_space_group_IT_number       1

loop_
  _space_group_symop_operation_xyz
  'x, y, z'

loop_
  _atom_site_type_symbol
  _atom_site_label
  _atom_site_symmetry_multiplicity
  _atom_site_fract_x
  _atom_site_fract_y
  _atom_site_fract_z
  _atom_site_occupancy
  N   N1        1.0  0.6592917732341455  0.5647645154642991  0.4068753665853122  1.0000
  C   C1        1.0  0.6050304419770525  0.615813401633795  0.3864823897524752  1.0000
  C   C2        1.0  0.5375363346467811  0.679309706430453  0.36111659264445906  1.0000
  C   C3        1.0  0.5280378122509063  0.785994380157305  0.248370860600817  1.0000
  C   C4        1.0  0.46247540671528775  0.8477552494280342  0.22387048075643418  1.0000
  C   C5        1.0  0.4057475683664276  0.8027034906584836  0.31061201071781686  1.0000
  O   O1        1.0  0.3410267853911727  0.8684763421795834  0.28359074735744816  1.0000
  C   C6        1.0  0.2758035567512517  0.802487559328058  0.30998626203456237  1.0000
  C   C7        1.0  0.219577341555314  0.8889556470889721  0.34340924498298664  1.0000
  C   C8        1.0  0.15354513215208626  0.8275199855457365  0.3688530758603974  1.0000
  C   C9        1.0  0.1430725046790027  0.6788034124343956  0.3596480293772546  1.0000
  C   C10       1.0  0.0750948534421828  0.6155344464163717  0.3856731485811631  1.0000
  N   N2        1.0  0.0204448213597689  0.5646684003995524  0.4065966746204397  1.0000
  C   C11       1.0  0.19881724783530014  0.5919745905634948  0.3240978329044019  1.0000
  C   C12       1.0  0.264840965822834  0.6534544764498691  0.29870234655979194  1.0000
  C   C13       1.0  0.415738796121142  0.6970368516757919  0.4251519202470677  1.0000
  C   C14       1.0  0.48129247398982433  0.6352720102389131  0.44972042336779267  1.0000
  H   H1        1.0  0.5712578612403648  0.8215144313341125  0.17962026450530888  1.0000
  H   H2        1.0  0.4555932436193273  0.9303506623435639  0.13663540973866684  1.0000
  H   H3        1.0  0.2272134989266165  0.004060160377431731  0.3504962202405195  1.0000
  H   H4        1.0  0.11072128792314832  0.8959120540461144  0.39547755991318845  1.0000
  H   H5        1.0  0.1911700798777425  0.4770251342340433  0.3152628366442798  1.0000
  H   H6        1.0  0.3069452800303771  0.5852615838637252  0.2682890184819704  1.0000
  H   H7        1.0  0.373248197907046  0.6639586492523716  0.4966205801674583  1.0000
  H   H8        1.0  0.4881907463919252  0.5538508743844979  0.5381646431907067  1.0000
  C   C15       1.0  0.8377345653013348  0.14112726138872708  0.40752322018856835  1.0000
  C   C16       1.0  0.8213042039645461  0.223330059987926  0.27865322256270164  1.0000
  C   C17       1.0  0.8113777980144233  0.15716594675153117  0.1489605009695525  1.0000
  C   C18       1.0  0.817915412447225  0.007413459757008137  0.1471983190427011  1.0000
  C   C19       1.0  0.833051715409246  0.9238763247124604  0.2742988441577019  1.0000
  C   C20       1.0  0.8420087119590765  0.9882947357556975  0.4059613131599886  1.0000
  N   N3        1.0  0.7953712575788514  0.24245592748530329  0.018673680967672412  1.0000
  H   H9        1.0  0.9171272176752789  0.22348376059053243  0.7228775134208061  1.0000
  H   H10       1.0  0.8177887797603796  0.339918933852984  0.27810232134976753  1.0000
  H   H11       1.0  0.8106078723816009  0.9550684789562361  0.04741259997292979  1.0000
  H   H12       1.0  0.8361102149611775  0.8076759365848435  0.2701688919162384  1.0000
  H   H13       1.0  0.8926649389783017  0.6930636763121542  0.6205164814381021  1.0000
  H   H14       1.0  0.7905697314044043  0.35453070273308773  0.0186305757913896  1.0000
  H   H15       1.0  0.7881365758115783  0.19414855397965952  0.9212580691686688  1.0000
  C   C21       1.0  0.8385764006363925  0.561065253241366  0.9835187243820469  1.0000
  C   C22       1.0  0.7844150255908612  0.6313655015341193  0.051246078605418965  1.0000
  C   C23       1.0  0.734969712892857  0.7112511241789772  0.9698525153702309  1.0000
  C   C24       1.0  0.738769776986067  0.7225092843000387  0.8192470704027832  1.0000
  C   C25       1.0  0.7915248872734761  0.6514344031519539  0.7498138625084998  1.0000
  C   C26       1.0  0.8411668515179013  0.568356661820882  0.8299657346332608  1.0000
  C   C27       1.0  0.6879328108230217  0.8057652711506262  0.7355357625348189  1.0000
  C   C28       1.0  0.6453660281279924  0.8754807898357223  0.6654123226800523  1.0000
  C   C29       1.0  0.5937188953856818  0.9600687840882176  0.5803179080079163  1.0000
  H   H16       1.0  0.9997407920768568  0.4446424473480492  0.09656631829177398  1.0000
  H   H17       1.0  0.7812640063054791  0.6273678137255347  0.1680474049977556  1.0000
  H   H18       1.0  0.6941194156348848  0.7654783407896788  0.024597321647237047  1.0000
  H   H19       1.0  0.7928466973157875  0.6582169503816495  0.632654067198581  1.0000
  H   H20       1.0  0.9486723654628544  0.48479410195778777  0.5564540716834823  1.0000
  H   H21       1.0  0.6079008722005532  0.9642094673410245  0.4643003505732253  1.0000
  H   H22       1.0  0.5415577947991378  0.9087168366215385  0.5954789466957442  1.0000
  H   H23       1.0  0.5925171936043605  0.0714504694849749  0.6166186399917417  1.0000
  Zn  Zn1       1.0  0.7635127564050902  0.564733002282418  0.406803265701019  1.0000
  Zn  Zn2       1.0  0.9162238323191099  0.5646882590812352  0.40668058090234505  1.0000
  C   C30       1.0  0.8406466649214983  0.5612320225731788  0.6699797562860872  1.0000
  C   C31       1.0  0.8390916010182273  0.5681910595472435  0.14350422707763122  1.0000
  C   C32       1.0  0.8411796354072321  0.8281125475017705  0.40051338651576235  1.0000
  C   C33       1.0  0.8385585699144849  0.30130880225624646  0.4129706769225116  1.0000
  O   O2        1.0  0.8972175326722964  0.5705592724461579  0.19715027662864526  1.0000
  O   O3        1.0  0.8984248996325991  0.5588287588610458  0.6162401789428955  1.0000
  O   O4        1.0  0.898854503391487  0.7743381710437471  0.39864417669642216  1.0000
  O   O5        1.0  0.8967878765248121  0.3550498696665818  0.4147461708365803  1.0000
  O   O6        1.0  0.7829486600865773  0.7743713917138455  0.3987376758010661  1.0000
  O   O7        1.0  0.7825190648328871  0.5588637119103228  0.6163335980072665  1.0000
  O   O8        1.0  0.7813116923623878  0.5705941603029543  0.19724196302380886  1.0000
  O   O9        1.0  0.7808820364906889  0.3550847481370268  0.41483796530456485  1.0000
