data_image0
_chemical_formula_structural       NC9NC3OH6C6SCOC6H9C6SCOC6H9Zn2C4O8
_chemical_formula_sum              "N2 C42 O11 H24 S2 Zn2"
_cell_length_a       15.78231758774541
_cell_length_b       10.302038109246572
_cell_length_c       10.302041481415108
_cell_angle_alpha    85.54819663174399
_cell_angle_beta     90.08006893222067
_cell_angle_gamma    89.64990665055792

_space_group_name_H-M_alt    "P 1"
_space_group_IT_number       1

loop_
  _space_group_symop_operation_xyz
  'x, y, z'

loop_
  _atom_site_type_symbol
  _atom_site_label
  _atom_site_symmetry_multiplicity
  _atom_site_fract_x
  _atom_site_fract_y
  _atom_site_fract_z
  _atom_site_occupancy
  N   N1        1.0  0.7982153390170491  0.41341713558275806  0.5703963127021974  1.0000
  C   C1        1.0  0.7496659952536254  0.33136511537601665  0.5944608287458442  1.0000
  C   C2        1.0  0.689390186482363  0.22951861363463766  0.624331092853702  1.0000
  C   C3        1.0  0.7090257942797171  0.10158302202506618  0.6617735655848711  1.0000
  C   C4        1.0  0.6322821360364131  0.03958040094214432  0.679994188582292  1.0000
  C   C5        1.0  0.570521449608696  0.1342673668598422  0.6523237448228294  1.0000
  C   C6        1.0  0.4774267731661087  0.11676116296193073  0.6575313333283561  1.0000
  C   C7        1.0  0.4237043122619714  0.2241007628967846  0.625998420959434  1.0000
  C   C8        1.0  0.3354947964022014  0.20974609297806612  0.6302756778333232  1.0000
  C   C9        1.0  0.281076497182536  0.3202087970462275  0.5978170543776149  1.0000
  N   N2        1.0  0.2373370764199104  0.40900655992587254  0.5717232215886019  1.0000
  C   C10       1.0  0.3003264204445211  0.08789206250067383  0.6661348108435936  1.0000
  C   C11       1.0  0.35311799551069006  0.980774382696853  0.6976068859549385  1.0000
  C   C12       1.0  0.44114176592951465  0.9947347072377086  0.6934458605688381  1.0000
  O   O1        1.0  0.6070035387069753  0.2464837625225822  0.6194332342230844  1.0000
  H   H1        1.0  0.771477104525784  0.058438568118772  0.6743496719456128  1.0000
  H   H2        1.0  0.6235284904472642  0.9376318641496543  0.7098463341179713  1.0000
  H   H3        1.0  0.45032978246983485  0.3189248066997794  0.5980889365593154  1.0000
  H   H4        1.0  0.2322075633343737  0.07573440375924266  0.6697553030209475  1.0000
  H   H5        1.0  0.32576234632778095  0.8865986051253681  0.7253259901390974  1.0000
  H   H6        1.0  0.4802103025172965  0.9098899584548508  0.7183822085403857  1.0000
  C   C13       1.0  0.017700001382253236  0.029934197487838432  0.571019378331818  1.0000
  C   C14       1.0  0.9452684180437138  0.03545856845821227  0.4912983859958233  1.0000
  C   C15       1.0  0.9096280494658284  0.9212449183939649  0.45114992165609746  1.0000
  C   C16       1.0  0.9455409514670328  0.8003232513191549  0.49124521520339437  1.0000
  C   C17       1.0  0.017860525045468197  0.792479451274696  0.571111417680291  1.0000
  C   C18       1.0  0.0536107024687373  0.9079415816935493  0.6104994903368912  1.0000
  S   S1        1.0  0.8176888778679818  0.9297385279977485  0.3482855347903713  1.0000
  C   C19       1.0  0.8799892507383694  0.9376575191906781  0.202083934919272  1.0000
  O   O2        1.0  0.9004215161916722  0.8322004700617383  0.15580579601465794  1.0000
  C   C20       1.0  0.9079363056938421  0.06356547701697868  0.13668519670300894  1.0000
  C   C21       1.0  0.9678468585146642  0.06533783553661876  0.03538196246178971  1.0000
  C   C22       1.0  0.9950811940562596  0.18342165320205114  0.9737547013971141  1.0000
  C   C23       1.0  0.9628633859463285  0.30096894706812205  0.012150171464436976  1.0000
  C   C24       1.0  0.9032077093911905  0.3006670761656811  0.11210142861757723  1.0000
  C   C25       1.0  0.8756909378660127  0.18288962307462373  0.17404793859533507  1.0000
  H   H7        1.0  0.15412691571842219  0.22682636041851897  0.721452532672747  1.0000
  H   H8        1.0  0.9164425166977263  0.12828090758303134  0.45994234548231  1.0000
  H   H9        1.0  0.9169880420642399  0.7128694827386224  0.4594015756999766  1.0000
  H   H10       1.0  0.10945071527639187  0.9027623639085304  0.6719557344063136  1.0000
  H   H11       1.0  0.9940588552149534  0.975520825483367  0.004170457543298812  1.0000
  H   H12       1.0  0.04130454507777778  0.18373759643730198  0.8962138150280988  1.0000
  H   H13       1.0  0.9840444068231364  0.39227711066502924  0.964350389273733  1.0000
  H   H14       1.0  0.8781062606844752  0.39185642564837364  0.14155602150011437  1.0000
  H   H15       1.0  0.8289712886564864  0.18596676294299733  0.2504552357296388  1.0000
  C   C26       1.0  0.01779616220431701  0.4113358976855148  0.1897784178134665  1.0000
  C   C27       1.0  0.05666673712379389  0.534014495396381  0.17899767148190926  1.0000
  C   C28       1.0  0.07638431519335626  0.5945280539063262  0.05667922789538271  1.0000
  C   C29       1.0  0.05674706874509658  0.5336099224537793  0.9438924538249363  1.0000
  C   C30       1.0  0.0177643607859843  0.411077720013277  0.9523523816009751  1.0000
  C   C31       1.0  0.9985532086483375  0.3505205286977682  0.07586577735871147  1.0000
  S   S2        1.0  0.12679683043171142  0.7505172242487284  0.04432780981554286  1.0000
  C   C32       1.0  0.2311587600134487  0.6796849737075423  0.04720319573216303  1.0000
  O   O3        1.0  0.2643138018063669  0.6561847411696458  0.9402403339175218  1.0000
  C   C33       1.0  0.27785523389654454  0.6478807527893973  0.17086504577518524  1.0000
  C   C34       1.0  0.353005657749939  0.5734201749136698  0.1712755532695256  1.0000
  C   C35       1.0  0.3971614980831861  0.5420873018874834  0.2873573453728231  1.0000
  C   C36       1.0  0.3670662302523868  0.5847269910375645  0.4042090600991997  1.0000
  C   C37       1.0  0.2928264511300471  0.6590196494627947  0.40518155203373074  1.0000
  C   C38       1.0  0.2484177816526959  0.6907291072397983  0.28939844683855176  1.0000
  H   H16       1.0  0.9444049713723263  0.180222555341905  0.41740623235434837  1.0000
  H   H17       1.0  0.0718983064212248  0.5827776016749081  0.2653639020297438  1.0000
  H   H18       1.0  0.07233770862081124  0.5820379710979604  0.849974029444382  1.0000
  H   H19       1.0  0.9685887329294485  0.2559438348481777  0.08325641554856111  1.0000
  H   H20       1.0  0.37747380762719995  0.5387247430120112  0.08202670138786439  1.0000
  H   H21       1.0  0.4547461959483112  0.48453804819911817  0.28667749406393406  1.0000
  H   H22       1.0  0.40132443208237634  0.5603374674353889  0.4939717607584983  1.0000
  H   H23       1.0  0.2696737130602196  0.6923151626575599  0.4957882503006256  1.0000
  H   H24       1.0  0.19147629223486695  0.7492137324530624  0.2933076132884249  1.0000
  Zn  Zn1       1.0  0.9249363821921704  0.41214086803931455  0.5707867213818503  1.0000
  Zn  Zn2       1.0  0.11061600207880312  0.41027222694328275  0.5713434256681713  1.0000
  C   C39       1.0  0.01776737090419744  0.405954116351453  0.8082089186495596  1.0000
  C   C40       1.0  0.0177870413219343  0.41646059640978134  0.3339213621163921  1.0000
  C   C41       1.0  0.017826013618303493  0.648343952892759  0.5659199252023783  1.0000
  C   C42       1.0  0.01772833491714132  0.17406920055364883  0.5762104244091337  1.0000
  O   O4        1.0  0.08824842714779635  0.41746568817392066  0.3825083166783929  1.0000
  O   O5        1.0  0.0882325200477858  0.4035297898714225  0.7600441158757241  1.0000
  O   O6        1.0  0.08827892483025217  0.5992626574188835  0.5643940367471865  1.0000
  O   O7        1.0  0.08820195901147104  0.22173283058505588  0.5781582982643416  1.0000
  O   O8        1.0  0.9473503618961613  0.6006802650366327  0.563971848588875  1.0000
  O   O9        1.0  0.9473039574410409  0.40494895744308956  0.7596218586750472  1.0000
  O   O10       1.0  0.947319864653036  0.4188848110283642  0.3820844984072518  1.0000
  O   O11       1.0  0.947273396507229  0.2231519441199947  0.5777345773389844  1.0000
