data_image0
_chemical_formula_structural       NC5NC3OH4C6BrH5C6H6Zn2C4O8
_chemical_formula_sum              "N2 C24 O9 H15 Br1 Zn2"
_cell_length_a       13.84702359539666
_cell_length_b       9.276564384272257
_cell_length_c       10.681121600428288
_cell_angle_alpha    85.5120417802204
_cell_angle_beta     89.98558129558303
_cell_angle_gamma    90.58678901707502

_space_group_name_H-M_alt    "P 1"
_space_group_IT_number       1

loop_
  _space_group_symop_operation_xyz
  'x, y, z'

loop_
  _atom_site_type_symbol
  _atom_site_label
  _atom_site_symmetry_multiplicity
  _atom_site_fract_x
  _atom_site_fract_y
  _atom_site_fract_z
  _atom_site_occupancy
  N   N1        1.0  0.9201922593193113  0.57827698337397  0.6172053457437932  1.0000
  C   C1        1.0  0.8479886128981162  0.5696077158467889  0.6719959210345305  1.0000
  C   C2        1.0  0.7580680148766116  0.5588126467291998  0.7402217318178239  1.0000
  C   C3        1.0  0.6705555185164831  0.5692413682722262  0.6743107012184539  1.0000
  C   C4        1.0  0.5826233023158676  0.5589338156411481  0.7394555914163907  1.0000
  C   C5        1.0  0.4928460215193262  0.569670994583659  0.6715957434119086  1.0000
  N   N2        1.0  0.42067671151567326  0.5783028621013444  0.6170418355723952  1.0000
  C   C6        1.0  0.5821980164366519  0.5381664348246797  0.8707073334330414  1.0000
  C   C7        1.0  0.6693302174066705  0.5277279921060696  0.9366774740771073  1.0000
  C   C8        1.0  0.7575774064125106  0.5379691170856411  0.8719537061201414  1.0000
  O   O1        1.0  0.8444298532766737  0.5275128544384105  0.9380380181209607  1.0000
  H   H1        1.0  0.6708895744623407  0.5853302659868829  0.5726281452118125  1.0000
  H   H2        1.0  0.514587559594322  0.5300538442871634  0.9219793599477305  1.0000
  H   H3        1.0  0.6682180269092364  0.511671006178386  0.038158966221748636  1.0000
  H   H4        1.0  0.8458586916310462  0.5124850092389157  0.033014523497395414  1.0000
  C   C9        1.0  0.16752950038973657  0.15480880428550758  0.6174447581930989  1.0000
  C   C10       1.0  0.15515366521187435  0.23830745011186066  0.502991960975604  1.0000
  C   C11       1.0  0.15176540617629475  0.1733184029845365  0.3896053108807698  1.0000
  C   C12       1.0  0.16073152576032856  0.023911705929966273  0.38851846540381163  1.0000
  C   C13       1.0  0.1714060573969789  0.9387196430460649  0.5012410378590673  1.0000
  C   C14       1.0  0.17334862098656112  0.0017599076297840689  0.6168131824219643  1.0000
  Br  Br1       1.0  0.15680632563304253  0.9355537247327823  0.2329319338763227  1.0000
  H   H5        1.0  0.13921058204423642  0.41735974603924425  0.8210485271572636  1.0000
  H   H6        1.0  0.15038786965378884  0.35496359628149343  0.500849613228082  1.0000
  H   H7        1.0  0.14308719427928018  0.23953818489931233  0.30237801308443646  1.0000
  H   H8        1.0  0.17587434833085758  0.822479891568494  0.49853963670866613  1.0000
  H   H9        1.0  0.22662258861995266  0.7038300050735223  0.811838128024166  1.0000
  C   C15       1.0  0.1704390797074138  0.5782843506548316  0.24938376339251933  1.0000
  C   C16       1.0  0.1007655543481496  0.49807711719910785  0.18804366270605377  1.0000
  C   C17       1.0  0.10076549468857834  0.49807720966396357  0.057161522703913066  1.0000
  C   C18       1.0  0.17043900427455272  0.578284421341918  0.9848741990409597  1.0000
  C   C19       1.0  0.24005502128508605  0.658425187033101  0.04621378757999527  1.0000
  C   C20       1.0  0.2400550087757911  0.6584251646708692  0.1771060862637519  1.0000
  H   H10       1.0  0.24089748843246844  0.6593959021141444  0.5425581901759873  1.0000
  H   H11       1.0  0.046152155951957104  0.43520689685315866  0.24114507657728623  1.0000
  H   H12       1.0  0.04615213624929538  0.4352069647336663  0.012641047307728082  1.0000
  H   H13       1.0  0.2946755520135813  0.7213036920521374  0.9931567005876234  1.0000
  H   H14       1.0  0.29467550300934336  0.7213036414963452  0.22158106812562248  1.0000
  H   H15       1.0  0.24089778638600334  0.6593953997001587  0.6806291647387073  1.0000
  Zn  Zn1       1.0  0.06462123291230903  0.5782805908287021  0.6171653840002396  1.0000
  Zn  Zn2       1.0  0.2762476327897445  0.5782874549267691  0.6170920262742321  1.0000
  C   C21       1.0  0.17039741771916028  0.5725394060078144  0.8458550584270024  1.0000
  C   C22       1.0  0.17047377143819165  0.5840304593847541  0.38840247260259075  1.0000
  C   C23       1.0  0.17224370931592103  0.8416681426111476  0.6119423008362554  1.0000
  C   C24       1.0  0.1686273957240365  0.31489999018200887  0.6223152982755005  1.0000
  O   O2        1.0  0.2507964869272741  0.5859552194813666  0.4350305871815676  1.0000
  O   O3        1.0  0.25069423556085835  0.5706187676956369  0.7991709073514832  1.0000
  O   O4        1.0  0.25218405674245536  0.7879436260651952  0.6102846998825877  1.0000
  O   O5        1.0  0.2493065936028057  0.36863037142554456  0.623916700771662  1.0000
  O   O6        1.0  0.09156219988155459  0.787937674329154  0.6103407095212554  1.0000
  O   O7        1.0  0.09007239059965788  0.5706145485582346  0.799226848926433  1.0000
  O   O8        1.0  0.09017464168511613  0.5859509500905882  0.435085023171383  1.0000
  O   O9        1.0  0.08868474828582573  0.3686260917202575  0.6239712306587233  1.0000
