data_image0
_chemical_formula_structural       NC5NC3OH4C6BrH5C6BrH4Zn2C4O8
_chemical_formula_sum              "N2 C24 O9 H13 Br2 Zn2"
_cell_length_a       13.84702359539666
_cell_length_b       9.276564384272257
_cell_length_c       9.27656775626242
_cell_angle_alpha    86.06955747846486
_cell_angle_beta     90.17190505705399
_cell_angle_gamma    90.58678901707502

_space_group_name_H-M_alt    "P 1"
_space_group_IT_number       1

loop_
  _space_group_symop_operation_xyz
  'x, y, z'

loop_
  _atom_site_type_symbol
  _atom_site_label
  _atom_site_symmetry_multiplicity
  _atom_site_fract_x
  _atom_site_fract_y
  _atom_site_fract_z
  _atom_site_occupancy
  N   N1        1.0  0.9166189574280873  0.5626937952669533  0.40897455443882547  1.0000
  C   C1        1.0  0.8445568962131301  0.554641981559556  0.47201587383949123  1.0000
  C   C2        1.0  0.7548126016058395  0.5446157725470568  0.550515599497347  1.0000
  C   C3        1.0  0.667129783492175  0.5543017200382776  0.47467922964735965  1.0000
  C   C4        1.0  0.5793659092493704  0.5447283075595653  0.5496340883707305  1.0000
  C   C5        1.0  0.4894132707289137  0.5547007505572901  0.4715554347002628  1.0000
  N   N2        1.0  0.4171029870951873  0.5627178313420216  0.4087864217739345  1.0000
  C   C6        1.0  0.5792797931062622  0.5254400477238752  0.7006506262781949  1.0000
  C   C7        1.0  0.6665824685770331  0.5157450451884755  0.7765550073725924  1.0000
  C   C8        1.0  0.7546624038538138  0.5252567757869193  0.7020846863924171  1.0000
  O   O1        1.0  0.841685620250768  0.5155452399591491  0.7781204315568082  1.0000
  H   H1        1.0  0.6672010799107488  0.5692447220897014  0.35768461046922484  1.0000
  H   H2        1.0  0.5118018291317254  0.5179052592709616  0.7596435494712894  1.0000
  H   H3        1.0  0.6657325180345252  0.5008316890662756  0.8933182851005411  1.0000
  H   H4        1.0  0.8433598889192065  0.5015877176340398  0.8873991565788297  1.0000
  C   C9        1.0  0.16395681716807076  0.13922831419964732  0.40925001927205806  1.0000
  C   C10       1.0  0.15128522267736044  0.22143715212652323  0.2775621275607345  1.0000
  C   C11       1.0  0.1476039593768479  0.15517031187799057  0.14710093078610664  1.0000
  C   C12       1.0  0.1565672704260164  0.0057513667882847  0.14585042059364195  1.0000
  C   C13       1.0  0.1675330902738974  0.9218296133064848  0.27554753832070844  1.0000
  C   C14       1.0  0.16977430569979401  0.9861723000995405  0.4085233364492815  1.0000
  Br  Br1       1.0  0.15224001664192377  0.9156400275055394  0.9668345921154855  1.0000
  H   H5        1.0  0.13616403459440107  0.4040737367870355  0.643513853194954  1.0000
  H   H6        1.0  0.1465138910440276  0.338069155443248  0.27509717025918823  1.0000
  H   H7        1.0  0.13870034201762474  0.22040709940134096  0.046738342664765176  1.0000
  H   H8        1.0  0.17199440047364467  0.8055594188111093  0.2724393414848818  1.0000
  H   H9        1.0  0.22355224042968194  0.6904402006686563  0.6329164884022649  1.0000
  C   C15       1.0  0.16591528415337242  0.558556054747493  0.985763852006487  1.0000
  C   C16       1.0  0.08033584447971975  0.5932682077237839  0.056377168700582736  1.0000
  C   C17       1.0  0.9991294148416711  0.6398592284245219  0.977666853056652  1.0000
  C   C18       1.0  0.001977592088810988  0.6526817693733638  0.8271589706588132  1.0000
  C   C19       1.0  0.08565306444464585  0.6164117300094957  0.7548206399157156  1.0000
  C   C20       1.0  0.16781586697427175  0.5668446354735175  0.8320095705664121  1.0000
  Br  Br2       1.0  0.8908397906397553  0.7176086332104867  0.7198949861405461  1.0000
  H   H10       1.0  0.29786923713146585  0.4275796372398622  0.27666046965296465  1.0000
  H   H11       1.0  0.9342109173913834  0.6673508833550332  0.03398512899092254  1.0000
  H   H12       1.0  0.08555167152868237  0.6237780366770831  0.6377639139723215  1.0000
  H   H13       1.0  0.32661280504226253  0.5519612993457226  0.5525678742292919  1.0000
  Zn  Zn1       1.0  0.061047827755301494  0.5626969523790657  0.40892857497929636  1.0000
  Zn  Zn2       1.0  0.27267403806785784  0.5627029897837112  0.4088441705390946  1.0000
  C   C21       1.0  0.16741497322548504  0.5595329500803661  0.6720559236641899  1.0000
  C   C22       1.0  0.16630921636501733  0.5658688130803389  0.14571696079346386  1.0000
  C   C23       1.0  0.16865680710576042  0.8260256434426096  0.402918963796173  1.0000
  C   C24       1.0  0.1650672985432804  0.29937438788592496  0.41485399899592745  1.0000
  O   O2        1.0  0.24675242431442013  0.5683190414222352  0.19936665964451872  1.0000
  O   O3        1.0  0.2475911538020512  0.5570862120283708  0.6183417499530359  1.0000
  O   O4        1.0  0.24859287109902845  0.7722824468219343  0.40101174981631416  1.0000
  O   O5        1.0  0.24575063463197844  0.35312281588445527  0.4166965517655201  1.0000
  O   O6        1.0  0.08797115897353525  0.772277126277757  0.40107619377409365  1.0000
  O   O7        1.0  0.08696945340037443  0.5570826233157988  0.6184061155975922  1.0000
  O   O8        1.0  0.08613071974117847  0.5683153854893308  0.19942929298250855  1.0000
  O   O9        1.0  0.08512893022655588  0.3531191506952025  0.4167592931404531  1.0000
