data_image0
_chemical_formula_structural       NC9NC3SH6C7ONH7C7F3H3Zn2C4O8
_chemical_formula_sum              "N3 C30 S1 H16 O9 F3 Zn2"
_cell_length_a       16.77567553997237
_cell_length_b       10.297852080636378
_cell_length_c       9.272721663655245
_cell_angle_alpha    85.87639669813234
_cell_angle_beta     90.90861439337802
_cell_angle_gamma    90.87229915396684

_space_group_name_H-M_alt    "P 1"
_space_group_IT_number       1

loop_
  _space_group_symop_operation_xyz
  'x, y, z'

loop_
  _atom_site_type_symbol
  _atom_site_label
  _atom_site_symmetry_multiplicity
  _atom_site_fract_x
  _atom_site_fract_y
  _atom_site_fract_z
  _atom_site_occupancy
  N   N1        1.0  0.7424965066814241  0.43201506653565447  0.41719183472944565  1.0000
  C   C1        1.0  0.6879683672066705  0.48159047622499634  0.46339139417266684  1.0000
  C   C2        1.0  0.6202981297600554  0.5431102794486367  0.5207215127701628  1.0000
  C   C3        1.0  0.622942525836018  0.631761143887476  0.6262827536443554  1.0000
  C   C4        1.0  0.5474713578629089  0.6754230842273284  0.6612798865650467  1.0000
  C   C5        1.0  0.4850868606334662  0.6209623867002778  0.5828616217162448  1.0000
  C   C6        1.0  0.3986511129694565  0.6470942120830694  0.5949145187916332  1.0000
  C   C7        1.0  0.3415270614004648  0.567157030913058  0.530181110674905  1.0000
  C   C8        1.0  0.2599355570421393  0.5912719636296699  0.5410604472218996  1.0000
  C   C9        1.0  0.20213683273809907  0.5086576927195465  0.47477726808906917  1.0000
  N   N2        1.0  0.1556837283454658  0.44224765932137666  0.421495385362298  1.0000
  C   C10       1.0  0.23463731976371546  0.6956367522709703  0.6164943293844001  1.0000
  C   C11       1.0  0.2906671263827816  0.7757301207893894  0.6807151972058245  1.0000
  C   C12       1.0  0.3721025368988195  0.751980195190864  0.6701630337766609  1.0000
  S   S1        1.0  0.5251312268763803  0.5182758307049262  0.4705735775946161  1.0000
  H   H1        1.0  0.6775930002718488  0.6638907067309923  0.6771090187072091  1.0000
  H   H2        1.0  0.5396003199162855  0.7437578987758837  0.7428864651550409  1.0000
  H   H3        1.0  0.3600496988960243  0.48554271682657024  0.4719299786386193  1.0000
  H   H4        1.0  0.17169408901417746  0.7151457080910857  0.6254781586818012  1.0000
  H   H5        1.0  0.2709621999305964  0.8567309685441702  0.7386137110129569  1.0000
  H   H6        1.0  0.4137781878919545  0.8168898149518169  0.7198731297336594  1.0000
  C   C13       1.0  0.9491789664266447  0.055696472534021  0.4193531591997324  1.0000
  C   C14       1.0  0.9375173129407693  0.06419606864335381  0.2685959320563829  1.0000
  C   C15       1.0  0.9309005618678204  0.9513961469942362  0.19226535617290463  1.0000
  C   C16       1.0  0.9373155068584751  0.8289386143267464  0.268544085447896  1.0000
  C   C17       1.0  0.949008931971279  0.8185565346622311  0.4193465938382248  1.0000
  C   C18       1.0  0.9546756529838932  0.9324434918077611  0.4937979842084679  1.0000
  C   C19       1.0  0.9187811723156427  0.9629788744224739  0.03301823835446327  1.0000
  O   O1        1.0  0.9397239393977179  0.06624531530193821  0.961431334072488  1.0000
  N   N3        1.0  0.8827907061705417  0.8599079746412768  0.9581960110365487  1.0000
  H   H7        1.0  0.9715078505953539  0.24691245057986835  0.7042109023341305  1.0000
  H   H8        1.0  0.9328600993046287  0.15891865603849675  0.21042308688507494  1.0000
  H   H9        1.0  0.9347722396673753  0.7413881800810987  0.21068497055635116  1.0000
  H   H10       1.0  0.9636614454471788  0.9251391490671373  0.6099884316470887  1.0000
  H   H11       1.0  0.9723853872472514  0.5917086440860384  0.7040838530900098  1.0000
  H   H12       1.0  0.8782127286277756  0.8683058034751252  0.8454855449502365  1.0000
  H   H13       1.0  0.8558392135587318  0.7793799488165294  0.013321608722849819  1.0000
  C   C20       1.0  0.9469849493962369  0.43496750922288024  0.9958847238985994  1.0000
  C   C21       1.0  0.9809409994265958  0.329564352285568  0.07896139441014638  1.0000
  C   C22       1.0  0.021883258359862493  0.2320604576190082  0.013483439069657651  1.0000
  C   C23       1.0  0.026427097717059533  0.2381543707738228  0.8623809098119519  1.0000
  C   C24       1.0  0.9919991388000629  0.3408414691925476  0.7783310389275062  1.0000
  C   C25       1.0  0.9512029975705064  0.43928551821487966  0.8428150591673256  1.0000
  C   C26       1.0  0.05602985063163701  0.11807162976011211  0.10418716442606724  1.0000
  F   F1        1.0  0.08287138307777275  0.15648784075370648  0.23669944982376  1.0000
  F   F2        1.0  0.11959412982722206  0.06591884590756258  0.035729641794347795  1.0000
  F   F3        1.0  0.9975173071882902  0.023126216376724965  0.12661401094461655  1.0000
  H   H14       1.0  0.8963783547000777  0.7430235351193198  0.07157509642685445  1.0000
  H   H15       1.0  0.0559126747269576  0.16258158609217244  0.8087806335534982  1.0000
  H   H16       1.0  0.8080791504107238  0.6548238327861184  0.7200321307437703  1.0000
  Zn  Zn1       1.0  0.8617334586829359  0.43496454633079906  0.4184420827854418  1.0000
  Zn  Zn2       1.0  0.03644683271959149  0.4392876437150668  0.42025697974830956  1.0000
  C   C27       1.0  0.9504050543724898  0.43329468606759775  0.682727133979965  1.0000
  C   C28       1.0  0.947777145234322  0.4409591908115964  0.15597208989486488  1.0000
  C   C29       1.0  0.9490083732978605  0.6743303451667751  0.41360141673869255  1.0000
  C   C30       1.0  0.9491737674221621  0.19992197005616877  0.4250978834114927  1.0000
  O   O2        1.0  0.014345829577729004  0.4446049800912286  0.21038761632673553  1.0000
  O   O3        1.0  0.016439776481570467  0.4329290456642221  0.6296886572455114  1.0000
  O   O4        1.0  0.015311052524469071  0.6275683742275235  0.4123677271678208  1.0000
  O   O5        1.0  0.015474493376426816  0.249965658793325  0.4277084376619673  1.0000
  O   O6        1.0  0.8827057384049629  0.6242865297786546  0.4109906242448633  1.0000
  O   O7        1.0  0.8838344616277153  0.42964876139771824  0.6283114774202787  1.0000
  O   O8        1.0  0.8817405061522581  0.44132464172287145  0.20900870275122307  1.0000
  O   O9        1.0  0.8828691704882216  0.2466853116856844  0.4263296322019936  1.0000
