data_image0
_chemical_formula_structural       NC5NC3BrH3C9H10C6OCH7Zn2C4O8
_chemical_formula_sum              "N2 C28 Br1 H20 O9 Zn2"
_cell_length_a       13.839083392302014
_cell_length_b       10.297183801781404
_cell_length_c       9.273891588657152
_cell_angle_alpha    86.04956984296379
_cell_angle_beta     89.68090098130043
_cell_angle_gamma    90.02359494799444

_space_group_name_H-M_alt    "P 1"
_space_group_IT_number       1

loop_
  _space_group_symop_operation_xyz
  'x, y, z'

loop_
  _atom_site_type_symbol
  _atom_site_label
  _atom_site_symmetry_multiplicity
  _atom_site_fract_x
  _atom_site_fract_y
  _atom_site_fract_z
  _atom_site_occupancy
  N   N1        1.0  0.9158064442532287  0.40931406497224887  0.4093421378114539  1.0000
  C   C1        1.0  0.8437962070264481  0.3520005614814612  0.41183547251670527  1.0000
  C   C2        1.0  0.7540773378197599  0.28068274575932617  0.4149378852576404  1.0000
  C   C3        1.0  0.666529997186284  0.3493059707832846  0.4119528847908345  1.0000
  C   C4        1.0  0.5784743453851819  0.28200903121745546  0.41488013395844625  1.0000
  C   C5        1.0  0.48872486637665896  0.3527498452197914  0.4118028608597015  1.0000
  N   N2        1.0  0.41657793275523036  0.40961991225289407  0.40932877749177754  1.0000
  C   C6        1.0  0.5779001636811117  0.14580833773169277  0.42080463416044633  1.0000
  C   C7        1.0  0.6650024442290275  0.07707590225881455  0.4237942937481727  1.0000
  C   C8        1.0  0.7532540380172339  0.14372972489706376  0.42089503926151584  1.0000
  Br  Br1       1.0  0.8706436990644397  0.04458593581309778  0.4252077154841025  1.0000
  H   H1        1.0  0.6669198496950216  0.4548499794553785  0.40736169913653564  1.0000
  H   H2        1.0  0.5101985956563994  0.09280760037296412  0.423109808979953  1.0000
  H   H3        1.0  0.6638494260718492  0.9717563176916469  0.4283753398552945  1.0000
  C   C9        1.0  0.16619942975523005  0.02799308049451032  0.40953970527566863  1.0000
  C   C10       1.0  0.1639497894944526  0.03661883551021106  0.25786276125179564  1.0000
  C   C11       1.0  0.16279700949699372  0.9244215745196884  0.18015422733112763  1.0000
  C   C12       1.0  0.1639406680984501  0.8014429587474682  0.2572748838868921  1.0000
  C   C13       1.0  0.16619416164273382  0.790930984877644  0.4091436770535355  1.0000
  C   C14       1.0  0.16730791482678306  0.9046741065885812  0.48428472300002073  1.0000
  C   C15       1.0  0.16036359735509897  0.9431831322923236  0.016104902238259108  1.0000
  C   C16       1.0  0.1040835148013488  0.8437796601219179  0.935868380033834  1.0000
  C   C17       1.0  0.21418528333024334  0.8441178942496673  0.9312865417298922  1.0000
  H   H4        1.0  0.16707546346280866  0.35220776000636006  0.46798569662724027  1.0000
  H   H5        1.0  0.16308150714932257  0.13137121830875564  0.19930709259739854  1.0000
  H   H6        1.0  0.1630941535471504  0.7133800036831985  0.20034529488379538  1.0000
  H   H7        1.0  0.16904307521329942  0.8972917122980246  0.6013066704344601  1.0000
  H   H8        1.0  0.1704375405680212  0.5638603683967491  0.6959810648970624  1.0000
  H   H9        1.0  0.15958234303608387  0.04346963523739157  0.9633765652342112  1.0000
  H   H10       1.0  0.07159415316686601  0.7606554806059834  0.0014647822202800127  1.0000
  H   H11       1.0  0.07037511130256946  0.8838031330700257  0.8338889590329708  1.0000
  H   H12       1.0  0.2485768307760883  0.7611999796311895  0.9941004756471266  1.0000
  H   H13       1.0  0.24482652314474462  0.8843366720259799  0.8266279079603809  1.0000
  C   C18       1.0  0.16777978631810606  0.4060225671379794  0.9860681176996531  1.0000
  C   C19       1.0  0.2469114210863672  0.4609395418902855  0.054611233311659076  1.0000
  C   C20       1.0  0.32056198123088686  0.5255534094934353  0.9747660139373528  1.0000
  C   C21       1.0  0.3153442720760129  0.5355759718986103  0.8233203361394366  1.0000
  C   C22       1.0  0.2382427055341092  0.4798736663373755  0.7534353768916882  1.0000
  C   C23       1.0  0.16461376647856632  0.4129014469296766  0.8326152711667807  1.0000
  O   O1        1.0  0.3970547540132448  0.5788693522150756  0.04994293766787238  1.0000
  C   C24       1.0  0.4766251336140812  0.6472841151622386  0.9828289644351494  1.0000
  H   H14       1.0  0.937942575927525  0.3260956939378452  0.09713288448852642  1.0000
  H   H15       1.0  0.37100680732421254  0.5852150929766564  0.758370972078048  1.0000
  H   H16       1.0  0.23746298460087625  0.48656828399385305  0.6363507464252258  1.0000
  H   H17       1.0  0.011342887386461834  0.35394126428834216  0.5572072552351268  1.0000
  H   H18       1.0  0.4506866095578695  0.7351757155239438  0.9183884483808954  1.0000
  H   H19       1.0  0.5169154948061896  0.5828373398128841  0.91244868837966  1.0000
  H   H20       1.0  0.5260879946731303  0.6783648455524236  0.0676550768305757  1.0000
  Zn  Zn1       1.0  0.06031825039753902  0.40939891067947676  0.40934661426908114  1.0000
  Zn  Zn2       1.0  0.2720660745865009  0.40952451516614846  0.409336135551466  1.0000
  C   C25       1.0  0.16521010830908864  0.40642612515177895  0.6726024369684525  1.0000
  C   C26       1.0  0.16717652841416109  0.4124989422858852  0.14608045335933406  1.0000
  C   C27       1.0  0.1662116512731868  0.6466728011708607  0.4034747413297577  1.0000
  C   C28       1.0  0.16617491291874442  0.17225070611610402  0.415208226658238  1.0000
  O   O2        1.0  0.2473312653366777  0.4147144718942866  0.19977808126031693  1.0000
  O   O3        1.0  0.24576707199341863  0.40430494307853815  0.6188964415478229  1.0000
  O   O4        1.0  0.24657474174452565  0.5983071838340079  0.4015739225489998  1.0000
  O   O5        1.0  0.2465235237345036  0.22071223951054136  0.417100492183732  1.0000
  O   O6        1.0  0.08586072899042474  0.5982111862935742  0.4015822576328083  1.0000
  O   O7        1.0  0.08505305951152464  0.40421050564729333  0.6189046989674152  1.0000
  O   O8        1.0  0.08661725940047815  0.41461997511279813  0.1997846057365935  1.0000
  O   O9        1.0  0.0858095173902591  0.22061773431581821  0.41710712473141043  1.0000
