data_image0
_chemical_formula_structural       NC5NC3OH4C6ClH5C7OH5Zn2C4O8
_chemical_formula_sum              "N2 C25 O10 H14 Cl1 Zn2"
_cell_length_a       13.84702359539666
_cell_length_b       10.30297070629231
_cell_length_c       9.274074313596557
_cell_angle_alpha    86.12141784095925
_cell_angle_beta     90.21930263959183
_cell_angle_gamma    89.99918224466363

_space_group_name_H-M_alt    "P 1"
_space_group_IT_number       1

loop_
  _space_group_symop_operation_xyz
  'x, y, z'

loop_
  _atom_site_type_symbol
  _atom_site_label
  _atom_site_symmetry_multiplicity
  _atom_site_fract_x
  _atom_site_fract_y
  _atom_site_fract_z
  _atom_site_occupancy
  N   N1        1.0  0.9050041927909326  0.40682751764493535  0.4098857586371562  1.0000
  C   C1        1.0  0.8330323710415595  0.3995798790772795  0.4729372028085703  1.0000
  C   C2        1.0  0.7434004436129107  0.3905550379951975  0.5514495359355489  1.0000
  C   C3        1.0  0.6556090713576823  0.3992736011720244  0.4756009862880612  1.0000
  C   C4        1.0  0.5679524898030226  0.390656333561634  0.550567883187173  1.0000
  C   C5        1.0  0.4778880867410973  0.3996327785135216  0.47247668968640477  1.0000
  N   N2        1.0  0.4054879531088475  0.4068491531173801  0.4096975957633777  1.0000
  C   C6        1.0  0.5680825438479088  0.3732944892648746  0.7016086751484272  1.0000
  C   C7        1.0  0.6554938733444989  0.36456777536035945  0.7775252466470766  1.0000
  C   C8        1.0  0.7434672081112643  0.373129521601436  0.7030429654861179  1.0000
  O   O1        1.0  0.8305992648909842  0.36438792570506506  0.7790909223626997  1.0000
  H   H1        1.0  0.6555128969046764  0.41272417045618964  0.3585875772572973  1.0000
  H   H2        1.0  0.5006890246528545  0.3665122380314121  0.7606110728777966  1.0000
  H   H3        1.0  0.6548110618481273  0.3511438911323661  0.8943072771573963  1.0000
  H   H4        1.0  0.8324299597494745  0.3518244113270501  0.8883871980101496  1.0000
  C   C9        1.0  0.15525068576063505  0.025590938178482688  0.4097978728116014  1.0000
  C   C10       1.0  0.2550464153517129  0.022697485890349256  0.4375210057500604  1.0000
  C   C11       1.0  0.30456239250951955  0.9043049872922482  0.4512763836253077  1.0000
  C   C12       1.0  0.2550464143955471  0.787589516621451  0.4375209379669975  1.0000
  C   C13       1.0  0.15525069629229818  0.7880758807206596  0.4097979553128425  1.0000
  C   C14       1.0  0.10583929053084895  0.9076701718513677  0.39607149495639227  1.0000
  Cl  Cl1       1.0  0.42923103542987207  0.9021938920655039  0.4859090824861067  1.0000
  H   H5        1.0  0.11765938007877041  0.35398396217271055  0.39935424727233126  1.0000
  H   H6        1.0  0.2947376019933501  0.11207195301174731  0.44854704573412246  1.0000
  H   H7        1.0  0.2947375635197129  0.6968707592669813  0.44854694219820285  1.0000
  H   H8        1.0  0.028873795293165253  0.9089733625375429  0.37469053709193556  1.0000
  H   H9        1.0  0.11765937611264146  0.4609559979008325  0.3993545193893948  1.0000
  C   C15       1.0  0.15409439642415967  0.4030941388548198  0.986557145497854  1.0000
  C   C16       1.0  0.06989181925042522  0.44141926954909816  0.05647766271482402  1.0000
  C   C17       1.0  0.9904447783640089  0.49017830365858805  0.9773253074442501  1.0000
  C   C18       1.0  0.9933419013668611  0.501909142129515  0.8260442168066122  1.0000
  C   C19       1.0  0.07624055774670913  0.46201655173629724  0.7549843039122552  1.0000
  C   C20       1.0  0.15640697312077534  0.4105726038505233  0.8330386821395808  1.0000
  C   C21       1.0  0.910271419379656  0.5542382513968152  0.7406847487096098  1.0000
  O   O2        1.0  0.8345945250613453  0.5904080356872352  0.8014194842312238  1.0000
  H   H10       1.0  0.39005674058524886  0.3700275116593936  0.09325698470250418  1.0000
  H   H11       1.0  0.927080632270869  0.5198959159247254  0.03475078843310574  1.0000
  H   H12       1.0  0.07735959714643825  0.46830820507519544  0.6378272203755166  1.0000
  H   H13       1.0  0.31501785856945497  0.38359583014333154  0.5555132134316114  1.0000
  H   H14       1.0  0.9137006724357958  0.5621187598821615  0.6238139421413122  1.0000
  Zn  Zn1       1.0  0.049433015952512274  0.40683035902528153  0.4098397694625837  1.0000
  Zn  Zn2       1.0  0.2610591380217482  0.40683579271893633  0.40975534739608777  1.0000
  C   C22       1.0  0.15596771717200042  0.4039870151740425  0.6730355047925296  1.0000
  C   C23       1.0  0.1545267481394752  0.4096807759769535  0.14655975260575937  1.0000
  C   C24       1.0  0.15523004894237058  0.6438992245534827  0.4040545274147904  1.0000
  C   C25       1.0  0.15526434436576908  0.16976700746893325  0.41554080685282524  1.0000
  O   O3        1.0  0.23498285975095826  0.4118877096864495  0.20022605145854744  1.0000
  O   O4        1.0  0.23613093438239077  0.4017832224363664  0.619304716652727  1.0000
  O   O5        1.0  0.23553417942137525  0.5955153788266989  0.40210067476710526  1.0000
  O   O6        1.0  0.23557954220307536  0.21815556162678562  0.4174299853072028  1.0000
  O   O7        1.0  0.07491253955355529  0.5955105901169251  0.4021651315726962  1.0000
  O   O8        1.0  0.07550929430027709  0.4017799928546652  0.619369096610219  1.0000
  O   O9        1.0  0.07436121499892856  0.4118844195539517  0.2002886985836804  1.0000
  O   O10       1.0  0.0749578977423142  0.21815226316311137  0.41749274049053  1.0000
