data_image0
_chemical_formula_structural       NC5NC3F3CH3C9H10C6NH7Zn2C4O8
_chemical_formula_sum              "N3 C28 F3 H20 Zn2 O8"
_cell_length_a       13.85151926108384
_cell_length_b       10.297183801781406
_cell_length_c       9.274774538082514
_cell_angle_alpha    85.03689992379437
_cell_angle_beta     90.34967317275357
_cell_angle_gamma    89.99762972311773

_space_group_name_H-M_alt    "P 1"
_space_group_IT_number       1

loop_
  _space_group_symop_operation_xyz
  'x, y, z'

loop_
  _atom_site_type_symbol
  _atom_site_label
  _atom_site_symmetry_multiplicity
  _atom_site_fract_x
  _atom_site_fract_y
  _atom_site_fract_z
  _atom_site_occupancy
  N   N1        1.0  0.9025295678674528  0.43416953857667817  0.4073204463681739  1.0000
  C   C1        1.0  0.8304558983363115  0.4255002501045891  0.4698636880079993  1.0000
  C   C2        1.0  0.7407906010840638  0.4147144634763839  0.547676427840925  1.0000
  C   C3        1.0  0.6529552670300606  0.42361370143866006  0.4720598868648582  1.0000
  C   C4        1.0  0.5657386114985109  0.41471445179249805  0.5476764077651644  1.0000
  C   C5        1.0  0.47543664660142215  0.4255002639135861  0.46986378217721353  1.0000
  N   N2        1.0  0.4028513826867617  0.43416950361956824  0.40732055196071604  1.0000
  C   C6        1.0  0.5663487771862724  0.3960156301548447  0.699086175721265  1.0000
  C   C7        1.0  0.6541984436708171  0.384233175518103  0.7759677466265905  1.0000
  C   C8        1.0  0.6548659269664335  0.36892209689493227  0.9391850745329606  1.0000
  F   F1        1.0  0.7360136727426221  0.30112553449166707  0.9908809264459542  1.0000
  F   F2        1.0  0.5741448584890736  0.30112550614893596  0.9908810258718772  1.0000
  F   F3        1.0  0.6550735029751421  0.4908547946207484  0.990902532639385  1.0000
  C   C9        1.0  0.7414191041102736  0.3960155441985651  0.6990861954044192  1.0000
  H   H1        1.0  0.6524757660404805  0.4382352974541645  0.3548330012294816  1.0000
  H   H2        1.0  0.4984615623906184  0.3908988877100486  0.7568075187983823  1.0000
  H   H3        1.0  0.8097783157443129  0.39089881516000036  0.756807477746748  1.0000
  C   C10       1.0  0.15269930430641068  0.052692371327131886  0.4075249713565796  1.0000
  C   C11       1.0  0.1492640685664535  0.06374296027728166  0.25565285116306624  1.0000
  C   C12       1.0  0.14750387353523386  0.9527880127575238  0.1778443227771606  1.0000
  C   C13       1.0  0.14925035233902917  0.828576482057398  0.25506421731347845  1.0000
  C   C14       1.0  0.15269094006252137  0.815636606577046  0.40712843354604233  1.0000
  C   C15       1.0  0.15439204014614494  0.9281784613963927  0.4823661701180519  1.0000
  C   C16       1.0  0.1437881564059931  0.974172199814729  0.013583900867993883  1.0000
  C   C17       1.0  0.08693035671506011  0.8760851234276036  0.933242656379476  1.0000
  C   C18       1.0  0.19689740354676744  0.8764292771091913  0.9286578716176969  1.0000
  H   H4        1.0  0.15403217774117248  0.37597267894364594  0.46604617059194076  1.0000
  H   H5        1.0  0.14793808077298043  0.1594314626325073  0.19702183374443738  1.0000
  H   H6        1.0  0.1479588448362099  0.7414236521225149  0.1980613719040749  1.0000
  H   H7        1.0  0.15704191277641005  0.9189252571014142  0.5995387000529786  1.0000
  H   H8        1.0  0.1591764171600248  0.5839803754346964  0.6943349201912172  1.0000
  H   H9        1.0  0.14259474592522128  0.07530166137443549  0.9607877136599421  1.0000
  H   H10       1.0  0.05498377634440566  0.7919327154578478  0.9989225714390808  1.0000
  H   H11       1.0  0.052453727140503684  0.9177586006215345  0.8311311474884326  1.0000
  H   H12       1.0  0.23174990195415274  0.7924867178271395  0.9915535295610551  1.0000
  H   H13       1.0  0.22669166796473883  0.9183015400961173  0.8238654261724059  1.0000
  C   C19       1.0  0.1509625023289798  0.43748702308995835  0.9835086758045731  1.0000
  C   C20       1.0  0.21936895292440517  0.5141469525676896  0.05020534966955159  1.0000
  C   C21       1.0  0.2921066547021979  0.5801059957662946  0.969406159008273  1.0000
  C   C22       1.0  0.29702701898872297  0.5697042575442188  0.8204341501404795  1.0000
  C   C23       1.0  0.2289302703706405  0.49590602465524886  0.7520334264861912  1.0000
  C   C24       1.0  0.15442771666902555  0.43084191601869426  0.8311447560185132  1.0000
  N   N3        1.0  0.3616214079631177  0.656585197815676  0.039108172040337445  1.0000
  H   H14       1.0  0.0066596932545968145  0.18354382151814397  0.10956095504375485  1.0000
  H   H15       1.0  0.21763109513977663  0.5203080342571258  0.16622227688804414  1.0000
  H   H16       1.0  0.3531859971626423  0.6198946901011557  0.7568772995351805  1.0000
  H   H17       1.0  0.2332352738264767  0.4922925395062323  0.6358622552846138  1.0000
  H   H18       1.0  0.05426969440259267  0.26375695140195154  0.5651498020779231  1.0000
  H   H19       1.0  0.35881786406146754  0.6647315503528239  0.15047386093313816  1.0000
  H   H20       1.0  0.41638695607505616  0.7057540741531484  0.979840536875638  1.0000
  Zn  Zn1       1.0  0.04691167030200962  0.4341659952865446  0.4073287973701256  1.0000
  Zn  Zn2       1.0  0.2584693110196541  0.434162358860291  0.4073239739621104  1.0000
  C   C25       1.0  0.15377062565297694  0.4269228652040091  0.6709260782467323  1.0000
  C   C26       1.0  0.1516126664326367  0.4414071268770683  0.1437268338353792  1.0000
  C   C27       1.0  0.1526640267973851  0.6714689891235746  0.40145220581930685  1.0000
  C   C28       1.0  0.1527191934300982  0.19685944161029398  0.4132007840209735  1.0000
  O   O1        1.0  0.23211588961783755  0.442715702165025  0.19749568376862703  1.0000
  O   O2        1.0  0.2338347549742084  0.42561055320921604  0.6171531525099095  1.0000
  O   O3        1.0  0.23294008625793078  0.623084629236017  0.39955109327509497  1.0000
  O   O4        1.0  0.23301048570133442  0.2452416362806633  0.41509763478708384  1.0000
  O   O5        1.0  0.07237042342605782  0.6230867178688875  0.399555136539206  1.0000
  O   O6        1.0  0.07326509180619481  0.4256142031920094  0.6171571180099052  1.0000
  O   O7        1.0  0.07154621942087114  0.44271932048214174  0.19749791409623896  1.0000
  O   O8        1.0  0.07244081594287757  0.24524524445805485  0.4150999733251082  1.0000
