data_image0
_chemical_formula_structural       NC9NC3SH6C7NC2NH6C7F3H4Zn2C4O8
_chemical_formula_sum              "N4 C32 S1 H16 F3 Zn2 O8"
_cell_length_a       16.77567553997237
_cell_length_b       9.273995741505848
_cell_length_c       9.272721663655245
_cell_angle_alpha    86.0144275597797
_cell_angle_beta     90.90861439337802
_cell_angle_gamma    91.47570659476311

_space_group_name_H-M_alt    "P 1"
_space_group_IT_number       1

loop_
  _space_group_symop_operation_xyz
  'x, y, z'

loop_
  _atom_site_type_symbol
  _atom_site_label
  _atom_site_symmetry_multiplicity
  _atom_site_fract_x
  _atom_site_fract_y
  _atom_site_fract_z
  _atom_site_occupancy
  N   N1        1.0  0.7517887951153468  0.5901662774407938  0.42127621217697153  1.0000
  C   C1        1.0  0.6975823484892429  0.6452167769226309  0.467617170052387  1.0000
  C   C2        1.0  0.6303113105827102  0.713530804314598  0.5251227547484838  1.0000
  C   C3        1.0  0.6335309585687487  0.8119722372232987  0.6309368446323542  1.0000
  C   C4        1.0  0.5583431111784352  0.8604561860018755  0.6660585096537244  1.0000
  C   C5        1.0  0.4956052206631533  0.7999808693119982  0.587484912609086  1.0000
  C   C6        1.0  0.4093390413678266  0.828998683762941  0.599612342586223  1.0000
  C   C7        1.0  0.3516962806306253  0.7402332700597591  0.534650938530332  1.0000
  C   C8        1.0  0.270261257105221  0.7670114469692233  0.5455990554202417  1.0000
  C   C9        1.0  0.2119264521048287  0.6752732867315315  0.47908024478266426  1.0000
  N   N2        1.0  0.165042415664298  0.6015289539648645  0.42560894809717165  1.0000
  C   C10       1.0  0.24564023876189298  0.8829022440200656  0.6213306056722782  1.0000
  C   C11       1.0  0.3021897680426194  0.9718410943442757  0.6857799149086836  1.0000
  C   C12       1.0  0.3834710662423117  0.9454682358031512  0.6751600122058474  1.0000
  S   S1        1.0  0.534983257955421  0.6859536482958296  0.4749039870344109  1.0000
  H   H1        1.0  0.6883899204515168  0.8476501770275735  0.6818547492770417  1.0000
  H   H2        1.0  0.5509154951075327  0.9363378720327095  0.7478599920418316  1.0000
  H   H3        1.0  0.3696893261096265  0.6496055015050888  0.4761670270550309  1.0000
  H   H4        1.0  0.182823600845602  0.9045657616590798  0.6303700781965131  1.0000
  H   H5        1.0  0.28301045284852705  0.06178764557391725  0.7439094584329828  1.0000
  H   H6        1.0  0.4255679131593235  0.017546449809011204  0.7250552426584771  1.0000
  C   C13       1.0  0.9560293385705585  0.17228719799576542  0.4223642049384353  1.0000
  C   C14       1.0  0.9693776189599181  0.2551682846200849  0.2920999624514762  1.0000
  C   C15       1.0  0.9898881805890645  0.1899255978279435  0.1673193480448476  1.0000
  C   C16       1.0  0.9979142636777864  0.039710386220317855  0.16924161026333184  1.0000
  C   C17       1.0  0.9828855663784083  0.9554988834875189  0.2982937092245519  1.0000
  C   C18       1.0  0.9608095035621169  0.019397188740577262  0.42453348405579927  1.0000
  C   C19       1.0  0.0206162533138421  0.9725951711168839  0.03548192196391553  1.0000
  N   N3        1.0  0.022865475431313564  0.04621594208971148  0.9044777691676296  1.0000
  C   C20       1.0  0.04633006905151582  0.948471400413403  0.814034264688535  1.0000
  C   C21       1.0  0.05809105580703932  0.8183042576731908  0.8907072984720976  1.0000
  N   N4        1.0  0.04195384220447274  0.8336314967502467  0.029958649632738872  1.0000
  H   H7        1.0  0.8924014241153371  0.4362886953048188  0.6292265495006282  1.0000
  H   H8        1.0  0.0006523403204512504  0.25787903618266994  0.06947703011033268  1.0000
  H   H9        1.0  0.9630525732699193  0.7227560641571569  0.6643506612065966  1.0000
  H   H10       1.0  0.054577191108638345  0.9710831196623196  0.6991553451375986  1.0000
  H   H11       1.0  0.07746158558512217  0.7194886466463789  0.8481640169519302  1.0000
  H   H12       1.0  0.04670929322019492  0.7536882932140226  0.11429658100951845  1.0000
  C   C22       1.0  0.9562963961125515  0.5934447867994013  0.9999775222703242  1.0000
  C   C23       1.0  0.9895684892775146  0.47640094444445014  0.08275356306982837  1.0000
  C   C24       1.0  0.02987804934200167  0.3681287559450688  0.01699750820529888  1.0000
  C   C25       1.0  0.03446143185768169  0.3748956786003461  0.8659123599389241  1.0000
  C   C26       1.0  0.0006998054110951567  0.48892350194492334  0.782155372054619  1.0000
  C   C27       1.0  0.9605424636742924  0.5982396750971719  0.8469201733162768  1.0000
  C   C28       1.0  0.06328497267350985  0.24155104436782282  0.10737611589454477  1.0000
  F   F1        1.0  0.09037578637473387  0.28420992740377415  0.23999797158201108  1.0000
  F   F2        1.0  0.12651083454268885  0.18363852647957785  0.03876984367270486  1.0000
  F   F3        1.0  0.004156332243997255  0.1361198948721769  0.12953216016091695  1.0000
  H   H13       1.0  0.9076887646349585  0.9355224055272692  0.07654652876979129  1.0000
  H   H14       1.0  0.0634566200934481  0.2909766637091282  0.8120965358244359  1.0000
  H   H15       1.0  0.004119385081902793  0.4894787636862605  0.6655377613546825  1.0000
  H   H16       1.0  0.8188172360083693  0.8375819608992162  0.7247520008765695  1.0000
  Zn  Zn1       1.0  0.8710448861731626  0.5934414966866213  0.4225348727064384  1.0000
  Zn  Zn2       1.0  0.04578631261566324  0.5982420353368084  0.4243620999595889  1.0000
  C   C29       1.0  0.9597056462063236  0.5915872176775289  0.6868151611440886  1.0000
  C   C30       1.0  0.9571274717325802  0.6000981874724747  0.16008197767418353  1.0000
  C   C31       1.0  0.9598730358733721  0.859242765246228  0.41837692312917385  1.0000
  C   C32       1.0  0.9569600130452173  0.33244090577879043  0.42852028751031546  1.0000
  O   O1        1.0  0.023719813456657853  0.6041466163630665  0.21450790258569394  1.0000
  O   O2        1.0  0.025737995689465887  0.5911811960841079  0.6337756415341433  1.0000
  O   O3        1.0  0.0258722785427401  0.8073164196427869  0.41700985958482306  1.0000
  O   O4        1.0  0.023585470492125008  0.3880114008721729  0.4312735758132773  1.0000
  O   O5        1.0  0.8932456686659986  0.8036721295145964  0.4156233962216256  1.0000
  O   O6        1.0  0.8931113952023363  0.5875386384442409  0.6323891057186051  1.0000
  O   O7        1.0  0.8910932040468479  0.6005039986463575  0.21311963286556646  1.0000
  O   O8        1.0  0.8909588615628717  0.38436877345101766  0.4298854141837636  1.0000
