data_image0
_chemical_formula_structural       NC5OC5NC4H8C7NH5C9H8Zn2C4O8
_chemical_formula_sum              "N3 C34 O9 H21 Zn2"
_cell_length_a       19.189071930511275
_cell_length_b       9.275154477615127
_cell_length_c       9.275155815604963
_cell_angle_alpha    86.28252252333478
_cell_angle_beta     90.33561097957745
_cell_angle_gamma    89.42495848434854

_space_group_name_H-M_alt    "P 1"
_space_group_IT_number       1

loop_
  _space_group_symop_operation_xyz
  'x, y, z'

loop_
  _atom_site_type_symbol
  _atom_site_label
  _atom_site_symmetry_multiplicity
  _atom_site_fract_x
  _atom_site_fract_y
  _atom_site_fract_z
  _atom_site_occupancy
  N   N1        1.0  0.6439661926336705  0.5640810267180021  0.41595018022025876  1.0000
  C   C1        1.0  0.5892048795506716  0.6151076147468744  0.3958532601574225  1.0000
  C   C2        1.0  0.5210888781734836  0.6785761843735877  0.37085570832007986  1.0000
  C   C3        1.0  0.5105454672018023  0.7852142582618225  0.25872869143914  1.0000
  C   C4        1.0  0.44437816478194975  0.8469481504004069  0.23458649224943362  1.0000
  C   C5        1.0  0.3880915713318538  0.8019160702277419  0.3210667456348717  1.0000
  O   O1        1.0  0.3227265974081542  0.8676601921838609  0.29442693032236855  1.0000
  C   C6        1.0  0.25814967458634414  0.8017002332160671  0.3204397446631344  1.0000
  C   C7        1.0  0.2010765756355334  0.8881305517380225  0.35436419717713563  1.0000
  C   C8        1.0  0.1356460779745002  0.826721725276278  0.37945173343415206  1.0000
  C   C9        1.0  0.1266300069387079  0.6780701115266203  0.3693842088131962  1.0000
  C   C10       1.0  0.0592720231525715  0.6148287813770199  0.3950424011921313  1.0000
  N   N2        1.0  0.005120182127249003  0.5639849536362911  0.4156709308384131  1.0000
  C   C11       1.0  0.1832251669435953  0.5912792164632468  0.33333045070609585  1.0000
  C   C12       1.0  0.2486467400478909  0.6527322479509485  0.30829151545987954  1.0000
  C   C13       1.0  0.39911771684991637  0.6962955864063469  0.4349938440690843  1.0000
  C   C14       1.0  0.4652763305069307  0.6345577238366542  0.45920414349865146  1.0000
  H   H1        1.0  0.5534176265236059  0.8207187942892206  0.19018409301391892  1.0000
  H   H2        1.0  0.4366870475939477  0.9295074856603757  0.14783043131395202  1.0000
  H   H3        1.0  0.20758537903219826  0.003184787404065591  0.3621187182515061  1.0000
  H   H4        1.0  0.09215238972246681  0.895083920138358  0.4064728556197836  1.0000
  H   H5        1.0  0.1767038343053765  0.47637997002737165  0.32382880787818724  1.0000
  H   H6        1.0  0.29141894751437486  0.5845691420031127  0.27748270436507294  1.0000
  H   H7        1.0  0.3569510924046199  0.6632318325334157  0.5062706677614643  1.0000
  H   H8        1.0  0.4729720559237101  0.553172152713876  0.5471761634304495  1.0000
  C   C15       1.0  0.8265581629436786  0.14062881728832477  0.4141411599031501  1.0000
  C   C16       1.0  0.8070516282719028  0.22271884989519483  0.2870785327966349  1.0000
  C   C17       1.0  0.7818967988428802  0.15565083813653358  0.16675176903833527  1.0000
  C   C18       1.0  0.7758359974374156  0.005577683955884315  0.17207061372623222  1.0000
  C   C19       1.0  0.7959797961291252  0.9222548645658565  0.2962361128528902  1.0000
  C   C20       1.0  0.8225349950752135  0.9874262350807451  0.4174923930479953  1.0000
  C   C21       1.0  0.7614585761295087  0.24130974235839606  0.03815824457184535  1.0000
  N   N3        1.0  0.7450319061486492  0.3101638774722079  0.9348019895065542  1.0000
  H   H9        1.0  0.8411231423946167  0.22034234648572082  0.7679122930081033  1.0000
  H   H10       1.0  0.8098848882112017  0.33964067314215907  0.2827998782695842  1.0000
  H   H11       1.0  0.756131607236904  0.9526599048414239  0.07959222578420255  1.0000
  H   H12       1.0  0.7923200680485218  0.8057871494264984  0.29611210207414196  1.0000
  H   H13       1.0  0.8352957589655472  0.6906937340836748  0.654526793971089  1.0000
  C   C22       1.0  0.823287051264834  0.5603833803318761  0.9925720842359755  1.0000
  C   C23       1.0  0.768437143145606  0.6306529214938785  0.06070714303434377  1.0000
  C   C24       1.0  0.7182094165210566  0.7105036501188828  0.9797768745188726  1.0000
  C   C25       1.0  0.7218992162015431  0.7217568926784391  0.8292367209764032  1.0000
  C   C26       1.0  0.7753504464539306  0.650713057020541  0.7593913160427754  1.0000
  C   C27       1.0  0.8258060888002626  0.5676716040259607  0.8390613808333727  1.0000
  C   C28       1.0  0.6702468261684261  0.8049765133349365  0.7460082541731468  1.0000
  C   C29       1.0  0.6269972373449647  0.8746615802990282  0.676289127768281  1.0000
  C   C30       1.0  0.5745216348163461  0.9592126265369357  0.5916852791052845  1.0000
  H   H14       1.0  0.9855917082710227  0.44401142789085396  0.10494448692306291  1.0000
  H   H15       1.0  0.7653252779221419  0.6266569798743222  0.1774852849337582  1.0000
  H   H16       1.0  0.6768280083063279  0.7647071802950252  0.03483617021573692  1.0000
  H   H17       1.0  0.776605827028282  0.6574926416353142  0.6422708559500552  1.0000
  H   H18       1.0  0.9341300292456303  0.4841455442679705  0.5650650988561794  1.0000
  H   H19       1.0  0.5886630570466109  0.9633515011403408  0.4756917354621057  1.0000
  H   H20       1.0  0.5228634842916893  0.907883109587977  0.6065485034265135  1.0000
  H   H21       1.0  0.5722290410956339  0.07054566044156063  0.6286319664564082  1.0000
  Zn  Zn1       1.0  0.7481874844502959  0.5640495273010702  0.4158778965760358  1.0000
  Zn  Zn2       1.0  0.9008989985871466  0.5640048036437071  0.4157549522902584  1.0000
  C   C31       1.0  0.8253556821815886  0.5605500768188866  0.6790340833146872  1.0000
  C   C32       1.0  0.8237324602385655  0.5675060740873538  0.15259891287139649  1.0000
  C   C33       1.0  0.8232747775729753  0.8273140284013982  0.41111548063812525  1.0000
  C   C34       1.0  0.8258133211962343  0.30074039089913174  0.4205175855757201  1.0000
  O   O2        1.0  0.8818351971963704  0.5698732525514698  0.2062586968153448  1.0000
  O   O3        1.0  0.8831574548828218  0.5581478628517373  0.6252805683022246  1.0000
  O   O4        1.0  0.8814763213173864  0.7735631405774694  0.4089344076343444  1.0000
  O   O5        1.0  0.8835162782811132  0.35445798422475594  0.4226047494992198  1.0000
  O   O6        1.0  0.7655701526433544  0.7735963467367881  0.40902809940145457  1.0000
  O   O7        1.0  0.7672512777467593  0.5581828006335319  0.6253741900759529  1.0000
  O   O8        1.0  0.7659290151886176  0.5699081251692593  0.20635058554178243  1.0000
  O   O9        1.0  0.7676100966410779  0.35449284746029375  0.42269674624404274  1.0000
