data_image0
_chemical_formula_structural       NC5OC5NC4H8C6BrH5C6NCH7Zn2C4O8
_chemical_formula_sum              "N3 C31 O9 H20 Br1 Zn2"
_cell_length_a       19.189071930511275
_cell_length_b       9.276564384272257
_cell_length_c       9.273390368590327
_cell_angle_alpha    86.11919172510322
_cell_angle_beta     89.96896470301299
_cell_angle_gamma    90.57707898574843

_space_group_name_H-M_alt    "P 1"
_space_group_IT_number       1

loop_
  _space_group_symop_operation_xyz
  'x, y, z'

loop_
  _atom_site_type_symbol
  _atom_site_label
  _atom_site_symmetry_multiplicity
  _atom_site_fract_x
  _atom_site_fract_y
  _atom_site_fract_z
  _atom_site_occupancy
  N   N1        1.0  0.6640563208347048  0.5611460191665694  0.4083602250934578  1.0000
  C   C1        1.0  0.609853056502052  0.6121404474718082  0.38801679583244786  1.0000
  C   C2        1.0  0.5424311757740662  0.6755690150919798  0.3627126276327799  1.0000
  C   C3        1.0  0.53327022323269  0.7819986708584453  0.2500679878328034  1.0000
  C   C4        1.0  0.467777539515205  0.8436940009138538  0.22562755852548635  1.0000
  C   C5        1.0  0.41078650180529674  0.7988287263558514  0.31232776815634816  1.0000
  O   O1        1.0  0.3461428351378025  0.864529909912171  0.28537031718342565  1.0000
  C   C6        1.0  0.280844439855952  0.7986115916706  0.3117017849673421  1.0000
  C   C7        1.0  0.22450702815864698  0.8851242923083265  0.3452110722463424  1.0000
  C   C8        1.0  0.1584021574292264  0.8237559843904445  0.37059530580483835  1.0000
  C   C9        1.0  0.147971921412777  0.6750598968305055  0.3612435144721614  1.0000
  C   C10       1.0  0.07991998931881511  0.6118599359543122  0.3872072516802432  1.0000
  N   N2        1.0  0.02521023728489711  0.5610493681448656  0.408081428740114  1.0000
  C   C11       1.0  0.203834453730461  0.5881822733620921  0.32560658403300646  1.0000
  C   C12       1.0  0.2699306798208861  0.64959489136622  0.30027074024185746  1.0000
  C   C13       1.0  0.42043453194752106  0.6934204509852306  0.42676765058103583  1.0000
  C   C14       1.0  0.4859182783329469  0.6317212869794004  0.4512762016385457  1.0000
  H   H1        1.0  0.5766988994609009  0.8173709654614798  0.1813499571838546  1.0000
  H   H2        1.0  0.4611565605795471  0.9260920849543043  0.13847075510309417  1.0000
  H   H3        1.0  0.2321104910739664  0.00021287435992389258  0.3524116246149134  1.0000
  H   H4        1.0  0.1154897808937413  0.8921837191277465  0.39728805900165365  1.0000
  H   H5        1.0  0.196225355161913  0.47324518775796687  0.31665810213523304  1.0000
  H   H6        1.0  0.3121351894264946  0.5813586510403266  0.26978920649007887  1.0000
  H   H7        1.0  0.3777266960538707  0.6604948375446451  0.49820624438747396  1.0000
  H   H8        1.0  0.49255152787209383  0.5504996066384719  0.53964335235775  1.0000
  C   C15       1.0  0.842537025283135  0.13762122538319876  0.4085909987416376  1.0000
  C   C16       1.0  0.8336096233507948  0.2197232695254914  0.2768682853586606  1.0000
  C   C17       1.0  0.831167705813172  0.15334849443704734  0.1463709853730275  1.0000
  C   C18       1.0  0.8376377654465956  0.003926348496089863  0.1451185003498665  1.0000
  C   C19       1.0  0.84533753889661  0.9201101388799997  0.27485018741340084  1.0000
  C   C20       1.0  0.8467361706268852  0.9845632046743422  0.40786305812746004  1.0000
  Br  Br1       1.0  0.8348095327414004  0.9136667292165668  0.9660530008205832  1.0000
  H   H9        1.0  0.8220963165813012  0.4026687441172274  0.6429258887736262  1.0000
  H   H10       1.0  0.8301706418880022  0.3363543653768417  0.2744034969509659  1.0000
  H   H11       1.0  0.8249078016156127  0.21850371034000807  0.04598172237258891  1.0000
  H   H12       1.0  0.8485619699901932  0.8038362777711686  0.2717403070459017  1.0000
  H   H13       1.0  0.8851738332848949  0.6890053312025581  0.6323097196895031  1.0000
  C   C21       1.0  0.844646600159991  0.5565952537476471  0.9849851205239131  1.0000
  C   C22       1.0  0.9086370174968601  0.5537128187430967  0.05854065942415133  1.0000
  C   C23       1.0  0.9715775148031108  0.5642362346762161  0.9830682647101022  1.0000
  C   C24       1.0  0.9721273733790274  0.5780323313962338  0.8314280473223921  1.0000
  C   C25       1.0  0.908549657253806  0.5784826744346172  0.757064668684658  1.0000
  C   C26       1.0  0.8446266093914617  0.5655892317547668  0.8314689750807593  1.0000
  N   N3        1.0  0.03625393442110991  0.5902158424019344  0.7505798332311531  1.0000
  C   C27       1.0  0.10506019465956906  0.5903673996365666  0.8175147693792693  1.0000
  H   H14       1.0  0.7343096584352166  0.4873540162428531  0.27096956166668296  1.0000
  H   H15       1.0  0.01958536068174799  0.5628964320354637  0.044153343985981135  1.0000
  H   H16       1.0  0.6816660932013788  0.45359867072150384  0.7361995493125255  1.0000
  H   H17       1.0  0.03404021297114368  0.5997736966161955  0.6376975313958294  1.0000
  H   H18       1.0  0.11004154127534371  0.6828735282668055  0.88690030760394  1.0000
  H   H19       1.0  0.11304954036289841  0.48728329524868447  0.8831507393957839  1.0000
  H   H20       1.0  0.14595343509977465  0.6012583493538153  0.7325833064945853  1.0000
  Zn  Zn1       1.0  0.7682775292776192  0.5611143690704203  0.4082880906580868  1.0000
  Zn  Zn2       1.0  0.9209889876715239  0.5610693905702036  0.4081653575116315  1.0000
  C   C28       1.0  0.8446003355008824  0.5581442419410922  0.6714703471111183  1.0000
  C   C29       1.0  0.8446678580705943  0.5640413382539449  0.14498323961641324  1.0000
  C   C30       1.0  0.845938989026032  0.8244121422851509  0.4022573081933756  1.0000
  C   C31       1.0  0.84332914384375  0.2977717061632641  0.414196356905874  1.0000
  O   O2        1.0  0.9026281638252951  0.5665169518224826  0.19863349880224848  1.0000
  O   O3        1.0  0.9025444877805535  0.5556333984279178  0.6177265223488866  1.0000
  O   O4        1.0  0.9036246861593832  0.7706481115262864  0.40033508803509665  1.0000
  O   O5        1.0  0.9015479133900901  0.35150224790722484  0.41602482508297656  1.0000
  O   O6        1.0  0.7877185514461351  0.7706815117502377  0.4004286231210419  1.0000
  O   O7        1.0  0.7866383616560823  0.5556685304153292  0.6178199790974148  1.0000
  O   O8        1.0  0.7867220375389762  0.5665520151456036  0.19872522275672688  1.0000
  O   O9        1.0  0.7856417870472285  0.35153730206407374  0.4161166571048181  1.0000
