data_image0
_chemical_formula_structural       NC9NC3OH6C7OC3OC4H12C7OC6OCH12Zn2C4O8
_chemical_formula_sum              "N2 C44 O13 H30 Zn2"
_cell_length_a       15.78231758774541
_cell_length_b       10.299371110280156
_cell_length_c       10.299362532796529
_cell_angle_alpha    85.59679077391144
_cell_angle_beta     90.0991944518132
_cell_angle_gamma    89.64456115777638

_space_group_name_H-M_alt    "P 1"
_space_group_IT_number       1

loop_
  _space_group_symop_operation_xyz
  'x, y, z'

loop_
  _atom_site_type_symbol
  _atom_site_label
  _atom_site_symmetry_multiplicity
  _atom_site_fract_x
  _atom_site_fract_y
  _atom_site_fract_z
  _atom_site_occupancy
  N   N1        1.0  0.7978220182082023  0.4128291630229617  0.5703721443430718  1.0000
  C   C1        1.0  0.7492828268946066  0.3307727964949485  0.5944256723594135  1.0000
  C   C2        1.0  0.6890196198567443  0.22892090014111277  0.6242822977281386  1.0000
  C   C3        1.0  0.7086710403756618  0.10097848019223465  0.6617076213159134  1.0000
  C   C4        1.0  0.631935061637153  0.03897259849396262  0.6799199488352188  1.0000
  C   C5        1.0  0.5701626808678638  0.1336646451109964  0.6522622060802639  1.0000
  C   C6        1.0  0.47707018627533815  0.11615756177220682  0.6574674656502895  1.0000
  C   C7        1.0  0.4233344328598851  0.2235028135877779  0.6259489167779044  1.0000
  C   C8        1.0  0.3351267076056006  0.20914742722295432  0.6302242654854506  1.0000
  C   C9        1.0  0.28069472734775064  0.31961594223316436  0.5977804217065457  1.0000
  N   N2        1.0  0.2369443085184828  0.4084183755200268  0.5716984696002481  1.0000
  C   C10       1.0  0.2999734349859551  0.08728702133307831  0.6660671058818257  1.0000
  C   C11       1.0  0.3527782760190478  0.9801637041778523  0.6975248481084713  1.0000
  C   C12       1.0  0.44080030474952236  0.9941247246526265  0.6933656782010142  1.0000
  O   O1        1.0  0.6066308896813274  0.245886998443958  0.619386727339273  1.0000
  H   H1        1.0  0.7711276722975547  0.05783169033151703  0.6742779336834257  1.0000
  H   H2        1.0  0.6231940200677154  0.9370186303115964  0.7097584318651788  1.0000
  H   H3        1.0  0.4499481489767864  0.3183318155099957  0.5980521099279967  1.0000
  H   H4        1.0  0.23185609396889362  0.07512875441345845  0.6696859814953542  1.0000
  H   H5        1.0  0.3254343006611786  0.885983002659933  0.7252313615017565  1.0000
  H   H6        1.0  0.47987935069244564  0.90927551607579  0.7182906752523561  1.0000
  C   C13       1.0  0.017330061137589947  0.029252876142366935  0.5709203369749964  1.0000
  C   C14       1.0  0.007543919859375858  0.038598307518945996  0.43490834642128706  1.0000
  C   C15       1.0  0.0016509845127761213  0.9261346288221187  0.3664729570552945  1.0000
  C   C16       1.0  0.007586031209341648  0.8033300958719564  0.4352195534721546  1.0000
  C   C17       1.0  0.017444359240514462  0.7919846203999615  0.5711615297174311  1.0000
  C   C18       1.0  0.022037495875262048  0.9055457221597101  0.6382623163791117  1.0000
  C   C19       1.0  0.992201116809363  0.935865799268478  0.22270021934893336  1.0000
  O   O2        1.0  0.026923355314856456  0.8504593450002336  0.158783409429891  1.0000
  C   C20       1.0  0.9433511928312874  0.04240456788833913  0.15144323613481658  1.0000
  C   C21       1.0  0.967013061113168  0.08728936486832084  0.024374647927141613  1.0000
  C   C22       1.0  0.9211705251841477  0.18674261333309672  0.9548567528535212  1.0000
  O   O3        1.0  0.9482009549139692  0.2282412405055192  0.8288430289295383  1.0000
  C   C23       1.0  0.9077979111497452  0.3281081133753696  0.7472876106654192  1.0000
  C   C24       1.0  0.8501028559206582  0.2413325312781216  0.01312904217398092  1.0000
  C   C25       1.0  0.825570820450148  0.19616618834082922  0.1386779730484735  1.0000
  C   C26       1.0  0.8715635920131497  0.09699250937853554  0.20744415907523117  1.0000
  H   H7        1.0  0.03709049897887384  0.21894346752398341  0.8273679416652562  1.0000
  H   H8        1.0  0.005436724275063476  0.13353825861103896  0.3818733081956711  1.0000
  H   H9        1.0  0.0036811881503482358  0.7164934111133932  0.3824863479708598  1.0000
  H   H10       1.0  0.029582439107973757  0.8975372726240075  0.7431175968333861  1.0000
  H   H11       1.0  0.02193625269423327  0.46017178519117463  0.6232609381018333  1.0000
  H   H12       1.0  0.02178950450076389  0.045829740420239684  0.9791681426158094  1.0000
  H   H13       1.0  0.9423461492329825  0.3408245615009968  0.6535229192848893  1.0000
  H   H14       1.0  0.9090543404419139  0.4215660621481929  0.7943095402236087  1.0000
  H   H15       1.0  0.8413917901110998  0.30053597034631174  0.7273232100166576  1.0000
  H   H16       1.0  0.8132897557856879  0.31818651743583826  0.9621303855533663  1.0000
  H   H17       1.0  0.7704739305466991  0.23779007575188604  0.1826618023349933  1.0000
  H   H18       1.0  0.8504431853410577  0.06208483587227698  0.3037571493293305  1.0000
  C   C27       1.0  0.01732106133729472  0.41049887281463726  0.18967380703527548  1.0000
  C   C28       1.0  0.9368810792936917  0.3526260107923551  0.19269997738864086  1.0000
  C   C29       1.0  0.8959443445778416  0.3247635678708729  0.0770540948343248  1.0000
  C   C30       1.0  0.9371197164408357  0.35278717224950995  0.9574464499428714  1.0000
  C   C31       1.0  0.017453362934012562  0.4107385991693302  0.9524080578290666  1.0000
  C   C32       1.0  0.0570209574409426  0.4395163964062814  0.06905893596834689  1.0000
  C   C33       1.0  0.811432428394903  0.2623145347847715  0.08258166387027366  1.0000
  O   O4        1.0  0.794109233922746  0.18328163965285893  0.17840089497175926  1.0000
  C   C34       1.0  0.7465761571312007  0.28951730742519133  0.9794793481279007  1.0000
  C   C35       1.0  0.7400787871407374  0.41295559521895764  0.9116452802053736  1.0000
  C   C36       1.0  0.6780630474333263  0.4377582115238534  0.8157700177791818  1.0000
  C   C37       1.0  0.6210517024263571  0.34066619219050454  0.7865181759377555  1.0000
  C   C38       1.0  0.626658020286361  0.21743040982702921  0.8552678297012801  1.0000
  C   C39       1.0  0.6886661477914388  0.1925006703819192  0.9512154339822754  1.0000
  O   O5        1.0  0.5600602743187547  0.3704385196212254  0.6893586180485873  1.0000
  C   C40       1.0  0.49826782909900386  0.2812976030631258  0.6497710220435731  1.0000
  H   H19       1.0  0.16925582252214055  0.5192120622390459  0.39127182228943824  1.0000
  H   H20       1.0  0.9055055004876693  0.33020013927354075  0.28513211205169053  1.0000
  H   H21       1.0  0.9068264353988482  0.32801128654958345  0.8682929613793604  1.0000
  H   H22       1.0  0.11899272767166624  0.48421751892304243  0.06590496618393238  1.0000
  H   H23       1.0  0.048413123917837364  0.4324857297795688  0.6230393352577988  1.0000
  H   H24       1.0  0.7823239628295847  0.4907822807048916  0.9336217897479511  1.0000
  H   H25       1.0  0.6740402163668351  0.5332583667217077  0.7642243730319684  1.0000
  H   H26       1.0  0.5834396537289925  0.14029929060210344  0.8353853730442884  1.0000
  H   H27       1.0  0.6918657192177853  0.09682691540224186  0.0026453426057599927  1.0000
  H   H28       1.0  0.4584757067010649  0.3303925542521535  0.5715828132237304  1.0000
  H   H29       1.0  0.45688790890043435  0.24950011394500016  0.7331855413449859  1.0000
  H   H30       1.0  0.5298407376439614  0.1956601927457482  0.6111836162176645  1.0000
  Zn  Zn1       1.0  0.9245432227629554  0.4115528383887048  0.570762385496399  1.0000
  Zn  Zn2       1.0  0.11022307572413004  0.40968410396671695  0.5713188413644497  1.0000
  C   C41       1.0  0.01742567805357509  0.4055196108275856  0.8082332972525281  1.0000
  C   C42       1.0  0.017342648319373932  0.4157189497893121  0.3338480636687835  1.0000
  C   C43       1.0  0.017417488413148385  0.6478104932255004  0.5659407640301957  1.0000
  C   C44       1.0  0.01735077437845356  0.17342650774029877  0.576140665446172  1.0000
  O   O6        1.0  0.08781442877886758  0.4167560145635647  0.3824454315535104  1.0000
  O   O7        1.0  0.08788060944062792  0.40306324002161587  0.760057892342078  1.0000
  O   O8        1.0  0.0878730465409634  0.5987162017288172  0.5644049550854147  1.0000
  O   O9        1.0  0.08782192830307922  0.22110306275369895  0.5780982712490217  1.0000
  O   O10       1.0  0.9469443068205843  0.600133880240842  0.5639829554151052  1.0000
  O   O11       1.0  0.9469518699381735  0.40448247882385835  0.7596358239199912  1.0000
  O   O12       1.0  0.9468856890551778  0.41817520761827276  0.3820218017239554  1.0000
  O   O13       1.0  0.94689318859142  0.22252224655019015  0.5776747387838974  1.0000
