data_image0
_chemical_formula_structural       NC9NC3OH6C7OC6H10C7OC3OC4H12Zn2C4O8
_chemical_formula_sum              "N2 C43 O12 H28 Zn2"
_cell_length_a       15.78231758774541
_cell_length_b       10.299379429549807
_cell_length_c       10.299374482448636
_cell_angle_alpha    85.52536088050722
_cell_angle_beta     90.0656979821288
_cell_angle_gamma    89.62936124648849

_space_group_name_H-M_alt    "P 1"
_space_group_IT_number       1

loop_
  _space_group_symop_operation_xyz
  'x, y, z'

loop_
  _atom_site_type_symbol
  _atom_site_label
  _atom_site_symmetry_multiplicity
  _atom_site_fract_x
  _atom_site_fract_y
  _atom_site_fract_z
  _atom_site_occupancy
  N   N1        1.0  0.798118461075713  0.4136822464465315  0.5693179636785393  1.0000
  C   C1        1.0  0.7495844172108629  0.33160828148668475  0.5934303518211919  1.0000
  C   C2        1.0  0.6893275992752177  0.22973454101147595  0.623360036927894  1.0000
  C   C3        1.0  0.7089870756524761  0.1017647243399904  0.6608771321517914  1.0000
  C   C4        1.0  0.6322549728245296  0.039745524735257165  0.6791339387727713  1.0000
  C   C5        1.0  0.5704766141424222  0.13445782570221532  0.6514082761508497  1.0000
  C   C6        1.0  0.477385189971992  0.11694694793654481  0.6566260967273612  1.0000
  C   C7        1.0  0.42364272243190665  0.22431524998949492  0.6250305455884073  1.0000
  C   C8        1.0  0.3354358721823608  0.2099567484068523  0.6293161943058154  1.0000
  C   C9        1.0  0.28099698557642283  0.3204489887799091  0.5967931075104476  1.0000
  N   N2        1.0  0.23724101542263612  0.4092704948949377  0.5706474541912847  1.0000
  C   C10       1.0  0.30029019791451805  0.08807014165411609  0.6652464516667576  1.0000
  C   C11       1.0  0.3531017375385372  0.9809238195571147  0.6967810371337833  1.0000
  C   C12       1.0  0.4411229157844269  0.9948878703586267  0.6926118501235128  1.0000
  O   O1        1.0  0.6069377753137875  0.24670423586341772  0.618452299650543  1.0000
  H   H1        1.0  0.7714464435836985  0.05860872286538443  0.6734783911785451  1.0000
  H   H2        1.0  0.6235203449858996  0.9377697165758214  0.709045552829976  1.0000
  H   H3        1.0  0.4502505274744857  0.3191646433863644  0.5970657126513912  1.0000
  H   H4        1.0  0.2321735987859944  0.0759092374566317  0.668874050768701  1.0000
  H   H5        1.0  0.3257636326831685  0.8867228657417973  0.7245551115694413  1.0000
  H   H6        1.0  0.48020726435430133  0.910020435779084  0.7175977127619357  1.0000
  C   C13       1.0  0.017692995200749184  0.03008430545246843  0.5701368117983348  1.0000
  C   C14       1.0  0.06903298595959528  0.0196545527484826  0.6820412149962023  1.0000
  C   C15       1.0  0.09413298446324592  0.8971626159963677  0.7393313518466011  1.0000
  C   C16       1.0  0.06892990808958044  0.7844335785261186  0.6817646122526408  1.0000
  C   C17       1.0  0.017674569315684785  0.792858385478098  0.5698398395765472  1.0000
  C   C18       1.0  0.9921693473019674  0.9161564416550276  0.5148717392850617  1.0000
  C   C19       1.0  0.14908022409274224  0.8860591893023921  0.8566987024693697  1.0000
  O   O2        1.0  0.20283217212662885  0.7947299234597163  0.8692180072613154  1.0000
  C   C20       1.0  0.1430445986213007  0.9784621224620964  0.9598682753532937  1.0000
  C   C21       1.0  0.21550633849799006  0.007182649065967217  0.03165244753737373  1.0000
  C   C22       1.0  0.2102379722722445  0.09297283364637687  0.13013171129404322  1.0000
  C   C23       1.0  0.1326152686795059  0.15003978006206675  0.15865579092537008  1.0000
  C   C24       1.0  0.06002316323089785  0.12101118620217877  0.08911539000191315  1.0000
  C   C25       1.0  0.06495128661760541  0.03530409267353529  0.9905474265870666  1.0000
  H   H7        1.0  0.9218807909740014  0.2571657410745969  0.35780899418424394  1.0000
  H   H8        1.0  0.09033813778004429  0.1070189912955184  0.7239439642685663  1.0000
  H   H9        1.0  0.08875629752574032  0.6899231288412303  0.7252631320685234  1.0000
  H   H10       1.0  0.9525904824652695  0.9233928982792614  0.42860127402463544  1.0000
  H   H11       1.0  0.9985744329029503  0.46868151852738943  0.5262131279338254  1.0000
  H   H12       1.0  0.27629580297903855  0.9641315404643225  0.010788533756002971  1.0000
  H   H13       1.0  0.2663936734627568  0.1151665551401495  0.1843993958494442  1.0000
  H   H14       1.0  0.1286527752412152  0.21633269494963736  0.23498706367645095  1.0000
  H   H15       1.0  0.9997785087230913  0.164495112587276  0.11198083820303228  1.0000
  H   H16       1.0  0.0076247711979891  0.01243652576797838  0.9394360368545602  1.0000
  C   C26       1.0  0.017762270522827528  0.4115580478590848  0.18860599748591134  1.0000
  C   C27       1.0  0.10626679959805685  0.4253340604267821  0.18649686863368609  1.0000
  C   C28       1.0  0.15079896644524116  0.43375485019583104  0.06814439777451686  1.0000
  C   C29       1.0  0.10606426886167264  0.42527222063002323  0.951257429571704  1.0000
  C   C30       1.0  0.0176052769786903  0.4113846216955035  0.9513706177085348  1.0000
  C   C31       1.0  0.9739421370567491  0.40494918316600037  0.07055241818537494  1.0000
  C   C32       1.0  0.24435311209250687  0.44694177228091725  0.06588312735882051  1.0000
  O   O3        1.0  0.28592444873929534  0.39297892626071484  0.9801826984438327  1.0000
  C   C33       1.0  0.2907430855393065  0.5213615026147367  0.1607622498297574  1.0000
  C   C34       1.0  0.37341134706826207  0.48381095421944753  0.19919110868093615  1.0000
  C   C35       1.0  0.41866826190337925  0.5536244673259445  0.28750411392778674  1.0000
  O   O4        1.0  0.5006484761950816  0.5109061705737565  0.32306185929106435  1.0000
  C   C36       1.0  0.5537350249017783  0.5722471615666407  0.41159082436389904  1.0000
  C   C37       1.0  0.3807881778692006  0.6633980871518781  0.33726150395217025  1.0000
  C   C38       1.0  0.2991091691071477  0.7022719881980433  0.29832456687632747  1.0000
  C   C39       1.0  0.25434130511979713  0.6322205388155504  0.21025416551680576  1.0000
  H   H17       1.0  0.8508882275871186  0.38357191693689807  0.40006332163259994  1.0000
  H   H18       1.0  0.14077650016651178  0.4280795185213073  0.27719142573974875  1.0000
  H   H19       1.0  0.14037844227619822  0.43078340003864124  0.8599654263348748  1.0000
  H   H20       1.0  0.9057116114079199  0.39432803248990833  0.0713746873266019  1.0000
  H   H21       1.0  0.9837032072655226  0.40496526459511717  0.6240418287814653  1.0000
  H   H22       1.0  0.40279818641606746  0.3991986682540103  0.16143439007339389  1.0000
  H   H23       1.0  0.6147277901807375  0.5182740493616989  0.42175494034716876  1.0000
  H   H24       1.0  0.5231384429655512  0.5707535133955026  0.5087335971314157  1.0000
  H   H25       1.0  0.5667592098363916  0.6741280460105374  0.37392900739438417  1.0000
  H   H26       1.0  0.413990481288663  0.7195055548492986  0.4055310076379943  1.0000
  H   H27       1.0  0.2705180906453766  0.7873653578299884  0.33611243535066926  1.0000
  H   H28       1.0  0.19168363480881156  0.6655787411600556  0.1798275561709255  1.0000
  Zn  Zn1       1.0  0.9248397395874433  0.41240563935709695  0.5697091210027301  1.0000
  Zn  Zn2       1.0  0.11051970648942255  0.41053649945788395  0.5702669176865718  1.0000
  C   C40       1.0  0.017633194822946896  0.4062434397002195  0.8071938164879657  1.0000
  C   C41       1.0  0.017728278807551456  0.4167003173937207  0.33278235512540677  1.0000
  C   C42       1.0  0.01767475137867147  0.6486790606300903  0.5647206137446916  1.0000
  C   C43       1.0  0.017686658915687214  0.1742631366887757  0.5752556275269045  1.0000
  O   O5        1.0  0.08818145077432171  0.41771111508932846  0.3813809409569715  1.0000
  O   O6        1.0  0.08810682149341909  0.40381302837318245  0.7590182119551612  1.0000
  O   O7        1.0  0.08813942876355418  0.5995828675460171  0.5632193818224753  1.0000
  O   O8        1.0  0.08814878016400884  0.22194128586722806  0.5771796735176085  1.0000
  O   O9        1.0  0.9472106025493986  0.6010008535870139  0.5627963649745125  1.0000
  O   O10       1.0  0.9471779952519448  0.4052325748285146  0.7585951252517946  1.0000
  O   O11       1.0  0.947252624911654  0.41913061664038076  0.38095629281577326  1.0000
  O   O12       1.0  0.9472199542780604  0.2233607781068072  0.576755122751279  1.0000
