data_image0
_chemical_formula_structural       NC9NC3OH6C7OC4NC3H9C7OC4NC3H9Zn2C4O8
_chemical_formula_sum              "N4 C44 O11 H24 Zn2"
_cell_length_a       15.78231758774541
_cell_length_b       10.299371701877257
_cell_length_c       10.299375074045738
_cell_angle_alpha    85.5592431839292
_cell_angle_beta     90.07708282106614
_cell_angle_gamma    89.64160960478583

_space_group_name_H-M_alt    "P 1"
_space_group_IT_number       1

loop_
  _space_group_symop_operation_xyz
  'x, y, z'

loop_
  _atom_site_type_symbol
  _atom_site_label
  _atom_site_symmetry_multiplicity
  _atom_site_fract_x
  _atom_site_fract_y
  _atom_site_fract_z
  _atom_site_occupancy
  N   N1        1.0  0.7981305489280532  0.41380796484152094  0.5703440514158631  1.0000
  C   C1        1.0  0.7495881238203173  0.33173525844235363  0.5943961948701406  1.0000
  C   C2        1.0  0.689320902770639  0.22986308009600975  0.6242511016787171  1.0000
  C   C3        1.0  0.708967300817407  0.1018952372371138  0.6616742624161902  1.0000
  C   C4        1.0  0.632228869428561  0.03987698339748902  0.6798855455468709  1.0000
  C   C5        1.0  0.570460195584424  0.13458781752504612  0.6522294056601634  1.0000
  C   C6        1.0  0.4773669927876962  0.11707719763490343  0.6574343735781991  1.0000
  C   C7        1.0  0.42363548273055346  0.22444386079733025  0.6259176333164851  1.0000
  C   C8        1.0  0.33542717498274083  0.2100855696270012  0.630192743242662  1.0000
  C   C9        1.0  0.2809995635993275  0.3205761246222054  0.5977507602750876  1.0000
  N   N2        1.0  0.2372526571020515  0.4093962760977805  0.5716703039551643  1.0000
  C   C10       1.0  0.3002690696896593  0.08820081432141458  0.6660335336590657  1.0000
  C   C11       1.0  0.3530696750525205  0.981056127094107  0.6974894712371575  1.0000
  C   C12       1.0  0.4410922705912017  0.9950199734482955  0.6933305334863054  1.0000
  O   O1        1.0  0.6069328218539916  0.24683250343790863  0.6193558215413588  1.0000
  H   H1        1.0  0.7714222516434196  0.05873990878419222  0.674243842792023  1.0000
  H   H2        1.0  0.6234838217923093  0.9379027459084119  0.7097223058364275  1.0000
  H   H3        1.0  0.45025296069999915  0.31929181412540886  0.5980224214729766  1.0000
  H   H4        1.0  0.23215123585938643  0.07604008864033651  0.6696522069286126  1.0000
  H   H5        1.0  0.3257219634546051  0.8868566034410343  0.7251944005500026  1.0000
  H   H6        1.0  0.48016795953073177  0.910153832603139  0.718254101550887  1.0000
  C   C13       1.0  0.017651335964968595  0.030232147077485783  0.5708800496899831  1.0000
  C   C14       1.0  0.021778644227527844  0.03958367405149166  0.4342241384318142  1.0000
  C   C15       1.0  0.02289823790116663  0.9271411024058569  0.36523337902260944  1.0000
  C   C16       1.0  0.021789101411601175  0.8043151322389882  0.43454157397698334  1.0000
  C   C17       1.0  0.01773995510075088  0.7929620136297726  0.5711455361485471  1.0000
  C   C18       1.0  0.0154715717186229  0.906524435743354  0.6385078803060014  1.0000
  C   C19       1.0  0.028146255961372768  0.9368629495679616  0.22099556558389089  1.0000
  O   O2        1.0  0.06893143334739871  0.850727323973713  0.16617147610349225  1.0000
  C   C20       1.0  0.9871117675194961  0.044219710701126624  0.13895736110834056  1.0000
  C   C21       1.0  0.02341000836197904  0.08854506341201906  0.019093660143570723  1.0000
  C   C22       1.0  0.9846099729100454  0.18886812594254399  0.9401836874003333  1.0000
  C   C23       1.0  0.022552173498254335  0.23436184705289187  0.8181387466613845  1.0000
  N   N3        1.0  0.053056012474899106  0.27092917960128515  0.7200323239889488  1.0000
  C   C24       1.0  0.9088791798413026  0.24479207582391593  0.980127830553553  1.0000
  C   C25       1.0  0.8718658000360815  0.20026394413141335  0.09824977749448616  1.0000
  C   C26       1.0  0.9104225546821562  0.10024080452177508  0.17714761757969577  1.0000
  H   H7        1.0  0.011165622914588669  0.2198865859031076  0.8288550444544336  1.0000
  H   H8        1.0  0.025076462156080837  0.13449443688006046  0.38134612615425345  1.0000
  H   H9        1.0  0.023280208319091056  0.7174828377572803  0.38153246556521214  1.0000
  H   H10       1.0  0.012290182194851784  0.898511195349467  0.743859848859262  1.0000
  H   H11       1.0  0.016897617850933466  0.4611330675255279  0.623669601169095  1.0000
  H   H12       1.0  0.08217303671822629  0.045875586064271445  0.9876934408686475  1.0000
  H   H13       1.0  0.878338638356464  0.322338099056255  0.9197945675840375  1.0000
  H   H14       1.0  0.8129581801062085  0.24295149898798374  0.12849652450850813  1.0000
  H   H15       1.0  0.8798040226483056  0.06580415950816887  0.26721377486482134  1.0000
  C   C27       1.0  0.017724463291912906  0.4117391562067878  0.18962617078730082  1.0000
  C   C28       1.0  0.08295635648495847  0.5041948808178347  0.1814120574051281  1.0000
  C   C29       1.0  0.11519937927867763  0.551913829650537  0.06001004264626131  1.0000
  C   C30       1.0  0.08281914194659801  0.5039585233134263  0.9461862441139357  1.0000
  C   C31       1.0  0.017666797575784488  0.41145505074581346  0.952399453700365  1.0000
  C   C32       1.0  0.9853445603446105  0.36613345966166366  0.07459833661945847  1.0000
  C   C33       1.0  0.1846880497600032  0.648534723027375  0.05127620402117472  1.0000
  O   O3        1.0  0.23883463308475616  0.6433057091718886  0.961803172219228  1.0000
  C   C34       1.0  0.19273821872012475  0.7510995091571795  0.14396270920656318  1.0000
  C   C35       1.0  0.27331855764506385  0.7968510470385417  0.17597882565345668  1.0000
  C   C36       1.0  0.28154063657953565  0.8947804144667828  0.26225447279541547  1.0000
  C   C37       1.0  0.36429052645938276  0.9403008272102658  0.2953081779021167  1.0000
  N   N4        1.0  0.4308121147557409  0.9768884936679161  0.321875869682235  1.0000
  C   C38       1.0  0.20919035701212652  0.9483584460569516  0.316247769044675  1.0000
  C   C39       1.0  0.1288925200290767  0.9046157234870871  0.28373225205754515  1.0000
  C   C40       1.0  0.12050195737080416  0.8069580337178746  0.19773174872343757  1.0000
  H   H16       1.0  0.8955151329399896  0.235791783234929  0.4125642342878242  1.0000
  H   H17       1.0  0.10941338393304179  0.5381304446001409  0.26968710564626486  1.0000
  H   H18       1.0  0.10804417725305782  0.5399410151626751  0.8525298682941056  1.0000
  H   H19       1.0  0.9350558185592622  0.2948561794247033  0.08012699965697156  1.0000
  H   H20       1.0  0.9931267246196385  0.37511478736905435  0.6273925020251516  1.0000
  H   H21       1.0  0.3296434055973423  0.75556498907059  0.13475411519017877  1.0000
  H   H22       1.0  0.21485149132525883  0.024179688261971144  0.3829704446362623  1.0000
  H   H23       1.0  0.07298992533085791  0.9468762387648966  0.3248097594546997  1.0000
  H   H24       1.0  0.0575627151923952  0.776196765158232  0.172227428218239  1.0000
  Zn  Zn1       1.0  0.9248516991730469  0.4125313749902908  0.5707342718570814  1.0000
  Zn  Zn2       1.0  0.11053147633068994  0.41066226249549564  0.5712906966365836  1.0000
  C   C41       1.0  0.017675227367531576  0.40633505771217737  0.8082171357275278  1.0000
  C   C42       1.0  0.017709975934346422  0.41686019793943974  0.33380796688502  1.0000
  C   C43       1.0  0.0177192317929864  0.648791820624544  0.5659199319976631  1.0000
  C   C44       1.0  0.017665907962847838  0.17440187533232665  0.57610523912375  1.0000
  O   O4        1.0  0.08816962093957126  0.41786388211883296  0.3824078531042405  1.0000
  O   O5        1.0  0.08814223680179345  0.4039117808116963  0.760039188836739  1.0000
  O   O6        1.0  0.08817682093454682  0.5996986922066141  0.5643824801554078  1.0000
  O   O7        1.0  0.08813497345532562  0.22207698068823722  0.5780644642197459  1.0000
  O   O8        1.0  0.9472481386850167  0.6011166574368021  0.5639605040772073  1.0000
  O   O9        1.0  0.9472135547349128  0.405331306375883  0.7596171440529627  1.0000
  O   O10       1.0  0.9472409390417776  0.41928336300801283  0.3819842468316874  1.0000
  O   O11       1.0  0.9472062915456304  0.22349645225234838  0.5776409553163075  1.0000
