data_image0
_chemical_formula_structural       NC9NC3OH6C6NCOC6H11C6NCOC6H11Zn2C4O8
_chemical_formula_sum              "N4 C42 O11 H28 Zn2"
_cell_length_a       15.78231758774541
_cell_length_b       10.29965916528486
_cell_length_c       10.299662537453274
_cell_angle_alpha    85.55779495060091
_cell_angle_beta     90.07028812251602
_cell_angle_gamma    89.64856781770791

_space_group_name_H-M_alt    "P 1"
_space_group_IT_number       1

loop_
  _space_group_symop_operation_xyz
  'x, y, z'

loop_
  _atom_site_type_symbol
  _atom_site_label
  _atom_site_symmetry_multiplicity
  _atom_site_fract_x
  _atom_site_fract_y
  _atom_site_fract_z
  _atom_site_occupancy
  N   N1        1.0  0.7983532265956796  0.41376275725292144  0.5703424356818692  1.0000
  C   C1        1.0  0.7498024376445463  0.331692346824491  0.5943963523861127  1.0000
  C   C2        1.0  0.6895248350050621  0.2298230183378731  0.6242534602189442  1.0000
  C   C3        1.0  0.7091581982520456  0.10185875491883767  0.6616793880594904  1.0000
  C   C4        1.0  0.632413443915264  0.03984223623197569  0.6798920101131134  1.0000
  C   C5        1.0  0.5706544141177893  0.13455042139476658  0.6522338210776064  1.0000
  C   C6        1.0  0.4775594211772854  0.11704029176989028  0.6574391652380516  1.0000
  C   C7        1.0  0.4238388566369204  0.224403951077651  0.6259201067101241  1.0000
  C   C8        1.0  0.33562908045956036  0.2100460619530522  0.6301955249420907  1.0000
  C   C9        1.0  0.2812127336970678  0.3205335256488553  0.5977511564920379  1.0000
  N   N2        1.0  0.2374748826013936  0.4093511921113582  0.571668782588646  1.0000
  C   C10       1.0  0.30045854477192524  0.08816471703001771  0.6660389453230335  1.0000
  C   C11       1.0  0.3532482269101163  0.9810230274713089  0.6974971962502801  1.0000
  C   C12       1.0  0.44127225063673337  0.9949864828175099  0.6933379586995221  1.0000
  O   O1        1.0  0.6071384773840828  0.24679196739611053  0.6193578112271514  1.0000
  H   H1        1.0  0.771608757214068  0.05870463329764508  0.6742499030501592  1.0000
  H   H2        1.0  0.6236580080087493  0.9378708511899859  0.7097309750013057  1.0000
  H   H3        1.0  0.4504660080230882  0.3192492504970412  0.5980228484223638  1.0000
  H   H4        1.0  0.23233946742252032  0.0760043318489334  0.6696578797720223  1.0000
  H   H5        1.0  0.32589090799516984  0.8868261395857919  0.7252041580047561  1.0000
  H   H6        1.0  0.4803392869741514  0.9101227163830338  0.7182633588645564  1.0000
  C   C13       1.0  0.017843584841927385  0.0301970466918009  0.5708899091882045  1.0000
  C   C14       1.0  0.018440536786107353  0.03952331520286356  0.4340752019900158  1.0000
  C   C15       1.0  0.019990692984211522  0.9273730014697508  0.36524402855171245  1.0000
  C   C16       1.0  0.018600136356208496  0.8043313078377095  0.434372069469384  1.0000
  C   C17       1.0  0.017992591604045316  0.7929068076882352  0.5711325208645424  1.0000
  C   C18       1.0  0.01791590237444507  0.9064447972834929  0.6386204104989845  1.0000
  N   N3        1.0  0.0192993509413788  0.9405052830849113  0.22517527966684403  1.0000
  C   C19       1.0  0.05902939862395251  0.8490071874748332  0.14556886933461555  1.0000
  O   O2        1.0  0.11747408432730944  0.7755837550588023  0.19272361441529484  1.0000
  C   C20       1.0  0.034422247690682806  0.8431097225734514  0.007127801015045732  1.0000
  C   C21       1.0  0.9560798141005995  0.8937714710227218  0.9605452358027673  1.0000
  C   C22       1.0  0.9333949886914836  0.887035008843953  0.8299536110991612  1.0000
  C   C23       1.0  0.988263543692344  0.8294288925306225  0.7446624102082589  1.0000
  C   C24       1.0  0.06586030026640888  0.7779876310023478  0.7898664990210533  1.0000
  C   C25       1.0  0.08886861039283112  0.7843645500657123  0.920354625832275  1.0000
  H   H7        1.0  0.015908808261631213  0.21987668964649476  0.8289638610073642  1.0000
  H   H8        1.0  0.018351338202736045  0.1341537262179231  0.38025175969373737  1.0000
  H   H9        1.0  0.01650403769117026  0.7175815963118962  0.3815602295512299  1.0000
  H   H10       1.0  0.017467049624986686  0.8983897948852333  0.7440891449133198  1.0000
  H   H11       1.0  0.016632269146763745  0.4610866128314225  0.6235900705778517  1.0000
  H   H12       1.0  0.9951302423585224  0.026898288873508758  0.1791617063860702  1.0000
  H   H13       1.0  0.9116688126006696  0.9368902289776846  0.024893651258440785  1.0000
  H   H14       1.0  0.8730147297656806  0.926087995052287  0.7949853872929613  1.0000
  H   H15       1.0  0.9705348599057001  0.8242876342057283  0.643651055719364  1.0000
  H   H16       1.0  0.10826679248110538  0.7330938995966081  0.7237483044514232  1.0000
  H   H17       1.0  0.14946139215760113  0.7441241427713096  0.9531047765894551  1.0000
  C   C26       1.0  0.017976449657516325  0.4116918820784674  0.18963546522320152  1.0000
  C   C27       1.0  0.10447747738695168  0.4431966704155266  0.1860930284706115  1.0000
  C   C28       1.0  0.14830159453723923  0.457181135305178  0.06762531088285906  1.0000
  C   C29       1.0  0.10432915198808645  0.44288809459623235  0.9509491854409093  1.0000
  C   C30       1.0  0.017859765544760764  0.41141199199303813  0.9523869798696447  1.0000
  C   C31       1.0  0.9752438639607973  0.39554634256306764  0.07230011669144276  1.0000
  N   N4        1.0  0.2365414549659257  0.4913793998462572  0.06741939583022005  1.0000
  C   C32       1.0  0.2965017672900474  0.45092792422665706  0.9733748440384806  1.0000
  O   O3        1.0  0.28102837548762194  0.3525274934976401  0.9117452963507882  1.0000
  C   C33       1.0  0.3778668710901141  0.5204375526862757  0.9512924948638384  1.0000
  C   C34       1.0  0.3881140697944667  0.648401831730069  0.9877179236602269  1.0000
  C   C35       1.0  0.46499476775647675  0.7131834543931892  0.9657803584646221  1.0000
  C   C36       1.0  0.5322445878624267  0.6514822663144824  0.9069892691258592  1.0000
  C   C37       1.0  0.5226852213035003  0.5249574261783516  0.869560409206064  1.0000
  C   C38       1.0  0.4459489031065724  0.45971733168641693  0.8911691859008282  1.0000
  H   H18       1.0  0.8546115371653548  0.3534713873592199  0.4034878912649458  1.0000
  H   H19       1.0  0.13842807620783049  0.456074452064964  0.2756201461549439  1.0000
  H   H20       1.0  0.13715052234394665  0.4585219067651405  0.8589401876832019  1.0000
  H   H21       1.0  0.9085639963329626  0.37124272337753306  0.07416682668155561  1.0000
  H   H22       1.0  0.9844168733229626  0.40102118425034705  0.6253589888627866  1.0000
  H   H23       1.0  0.25967510348920597  0.5383497034668019  0.14642684838550912  1.0000
  H   H24       1.0  0.3366399221941285  0.6994529916355186  0.031352349013626934  1.0000
  H   H25       1.0  0.4723029991852006  0.8115872644154816  0.9939495566260526  1.0000
  H   H26       1.0  0.5916665253619651  0.7018622295231356  0.8900674191998044  1.0000
  H   H27       1.0  0.5747863406637095  0.4773171976322934  0.8237319819391202  1.0000
  H   H28       1.0  0.44009262792360015  0.3615215507083782  0.8616294065435994  1.0000
  Zn  Zn1       1.0  0.925074245499609  0.41248620320380636  0.5707326832460087  1.0000
  Zn  Zn2       1.0  0.11075383150948315  0.410617143045404  0.5712891481623723  1.0000
  C   C39       1.0  0.01787889850545743  0.4062913722028725  0.8082089658853853  1.0000
  C   C40       1.0  0.01795120641958614  0.41681359217028957  0.33381299958958355  1.0000
  C   C41       1.0  0.017960867624865484  0.6487403984054334  0.5659114030823569  1.0000
  C   C42       1.0  0.017869173625270296  0.1743630063144499  0.576110630946248  1.0000
  O   O4        1.0  0.08840716866482734  0.417817520667751  0.3824114709343467  1.0000
  O   O5        1.0  0.08834944557433344  0.4038678907301536  0.76003246437201  1.0000
  O   O6        1.0  0.08841468657397811  0.5996485546413279  0.5643754656958879  1.0000
  O   O7        1.0  0.08834186432203261  0.2220368667200927  0.5780683720471245  1.0000
  O   O8        1.0  0.947486149323731  0.6010664801683518  0.5639534591645321  1.0000
  O   O9        1.0  0.9474209086356654  0.4052873765496914  0.7596103890902939  1.0000
  O   O10       1.0  0.9474786320125874  0.4192369618047598  0.38198783420968563  1.0000
  O   O11       1.0  0.9474133276496138  0.22345629853282034  0.5776448326890828  1.0000
