data_image0
_chemical_formula_structural       NC9NC3OH6C7OC6H10C7OC3NC3H11Zn2C4O8
_chemical_formula_sum              "N3 C42 O11 H27 Zn2"
_cell_length_a       15.78231758774541
_cell_length_b       10.299379429549807
_cell_length_c       10.298749378158432
_cell_angle_alpha    85.5342726072926
_cell_angle_beta     90.09282152326762
_cell_angle_gamma    89.62936124648849

_space_group_name_H-M_alt    "P 1"
_space_group_IT_number       1

loop_
  _space_group_symop_operation_xyz
  'x, y, z'

loop_
  _atom_site_type_symbol
  _atom_site_label
  _atom_site_symmetry_multiplicity
  _atom_site_fract_x
  _atom_site_fract_y
  _atom_site_fract_z
  _atom_site_occupancy
  N   N1        1.0  0.7976774175041625  0.4134635139026628  0.5692472395697832  1.0000
  C   C1        1.0  0.7491508068868928  0.3313932354111322  0.5933608196804045  1.0000
  C   C2        1.0  0.6889032155263213  0.22952407079274817  0.6232919843264111  1.0000
  C   C3        1.0  0.7085742574878616  0.10155998999371296  0.6608109341644404  1.0000
  C   C4        1.0  0.6318477827778287  0.039543581615578915  0.6790686432895017  1.0000
  C   C5        1.0  0.5700608769657821  0.13425164369188125  0.6513416100815737  1.0000
  C   C6        1.0  0.4769710613192336  0.11674156366263166  0.6565596885949996  1.0000
  C   C7        1.0  0.4232188536591457  0.22410503516966074  0.6249625755665842  1.0000
  C   C8        1.0  0.3350133245681583  0.20974718880657228  0.629248436140071  1.0000
  C   C9        1.0  0.28056441190611986  0.320234456825655  0.5967237416035918  1.0000
  N   N2        1.0  0.2368003816998354  0.40905196561275425  0.5705767958043513  1.0000
  C   C10       1.0  0.29987872670208116  0.08786607531956148  0.6651804696716541  1.0000
  C   C11       1.0  0.35269998765190774  0.9807245744476292  0.6967166140143732  1.0000
  C   C12       1.0  0.440719880641477  0.9946879878350567  0.6925472209051744  1.0000
  O   O1        1.0  0.6065118786319528  0.24649301531594325  0.618384004440754  1.0000
  H   H1        1.0  0.7710375100727991  0.058405915086557236  0.6734128161198332  1.0000
  H   H2        1.0  0.623122375943419  0.9375723465501415  0.7089817359926891  1.0000
  H   H3        1.0  0.4498180378415454  0.31895015310986574  0.5969963602204544  1.0000
  H   H4        1.0  0.23176324587184013  0.07570572573446466  0.6688082480997557  1.0000
  H   H5        1.0  0.3253704448506325  0.8865278669245006  0.7244920614292205  1.0000
  H   H6        1.0  0.479811931729323  0.9098243732666392  0.7175343186907657  1.0000
  C   C13       1.0  0.017252204059640563  0.02986569809975137  0.5700661281683863  1.0000
  C   C14       1.0  0.06862669215360784  0.019453054113258705  0.6819760632307641  1.0000
  C   C15       1.0  0.09374435177687124  0.8969698762726653  0.7392690321526967  1.0000
  C   C16       1.0  0.06852352901386971  0.7842320376019585  0.6816994468136661  1.0000
  C   C17       1.0  0.017233686625450995  0.7926397327222184  0.5697691412661208  1.0000
  C   C18       1.0  0.9917115193180495  0.9159293849966011  0.5147983236902884  1.0000
  C   C19       1.0  0.14872777283186145  0.8858843935092889  0.8566421846944516  1.0000
  O   O2        1.0  0.20248358025501711  0.7945570417043344  0.8691621083637238  1.0000
  C   C20       1.0  0.14272395196531784  0.9783030999453426  0.9598168576466701  1.0000
  C   C21       1.0  0.2152078211110391  0.007034601408890451  0.03160457839812714  1.0000
  C   C22       1.0  0.2099698135849264  0.0928398421788188  0.130088710363094  1.0000
  C   C23       1.0  0.13235590325416813  0.1499111495526677  0.1586142000492471  1.0000
  C   C24       1.0  0.05974236023521873  0.1208719238763385  0.08907036147664593  1.0000
  C   C25       1.0  0.06464009757840139  0.035149760597160684  0.9904975254687367  1.0000
  H   H7        1.0  0.9213745444650037  0.2569146715796977  0.3577278143746525  1.0000
  H   H8        1.0  0.0899447615460458  0.10682389904180445  0.7238808839169866  1.0000
  H   H9        1.0  0.08836332795825697  0.6897282382709937  0.725200116928475  1.0000
  H   H10       1.0  0.9521060594496452  0.923152651996692  0.4285235937493719  1.0000
  H   H11       1.0  0.9981201011861478  0.4684561958187348  0.5261402729874589  1.0000
  H   H12       1.0  0.2759908537680924  0.9639803029881102  0.010739633233353252  1.0000
  H   H13       1.0  0.2661422441484289  0.11504186049074638  0.18435907757860193  1.0000
  H   H14       1.0  0.12841694084254907  0.21621573449203302  0.23494924614835255  1.0000
  H   H15       1.0  0.9995047545745236  0.16435934608896763  0.111936940004703  1.0000
  H   H16       1.0  0.0072978257927287515  0.012274379429585425  0.9393836091039012  1.0000
  C   C26       1.0  0.01720386295212184  0.4112811094422604  0.18851645332223144  1.0000
  C   C27       1.0  0.06348395505100957  0.5276878256680795  0.17859139969941884  1.0000
  C   C28       1.0  0.08603578247070742  0.5873605984068813  0.056331036853904504  1.0000
  C   C29       1.0  0.06348732134542101  0.5277366561604404  0.9433473614499146  1.0000
  C   C30       1.0  0.01728199798839225  0.4112242888318405  0.9513188214548993  1.0000
  C   C31       1.0  0.9942388326456478  0.3539184208548032  0.0743254931011057  1.0000
  C   C32       1.0  0.13559434516991775  0.7096379262225907  0.045753160218651834  1.0000
  O   O3        1.0  0.1885379194629131  0.7274499252647213  0.9545594042518908  1.0000
  C   C33       1.0  0.12509309927466572  0.8117002570236098  0.13857136422580174  1.0000
  C   C34       1.0  0.04582333474092826  0.835071961416376  0.1950268379141742  1.0000
  C   C35       1.0  0.03634303330984401  0.9326749880748002  0.2816604528164681  1.0000
  N   N3        1.0  0.9556717525781377  0.9553383532766169  0.33907984980922956  1.0000
  C   C36       1.0  0.10625876596447226  0.00822820936329105  0.31124012916695665  1.0000
  C   C37       1.0  0.18486078323939803  0.9868139796880091  0.25432254025028644  1.0000
  C   C38       1.0  0.19429224761242736  0.889523132572722  0.16806546079005358  1.0000
  H   H17       1.0  0.9308802450601101  0.19030469870528743  0.4147141300630297  1.0000
  H   H18       1.0  0.08283347825741783  0.5713418321238855  0.26617906680841164  1.0000
  H   H19       1.0  0.08135580590246438  0.5730817948001234  0.8489774285438898  1.0000
  H   H20       1.0  0.9585692669147957  0.2641874145216272  0.08122414145333656  1.0000
  H   H21       1.0  0.9302839184453223  0.19083367662598905  0.7590976167466117  1.0000
  H   H22       1.0  0.9911538155759354  0.7786105947931188  0.17084050872404322  1.0000
  H   H23       1.0  0.9031319208771477  0.8995908114182312  0.31771467587209945  1.0000
  H   H24       1.0  0.9479065668414206  0.027939027307231523  0.40351583202411523  1.0000
  H   H25       1.0  0.09974614840047469  0.08391244122467922  0.37792404062614393  1.0000
  H   H26       1.0  0.2386250546140598  0.04574440190772222  0.2770985270388764  1.0000
  H   H27       1.0  0.25584809609412607  0.8742591689627572  0.1252570730564717  1.0000
  Zn  Zn1       1.0  0.9243988165999351  0.41218696661605914  0.5696384162303827  1.0000
  Zn  Zn2       1.0  0.1100789554567132  0.4103179119966536  0.5701962404882568  1.0000
  C   C39       1.0  0.017265482441028324  0.40606107525847923  0.8071348514963703  1.0000
  C   C40       1.0  0.01721431721022948  0.4164454216535156  0.3326999381529119  1.0000
  C   C41       1.0  0.017232290558855556  0.6484596252116341  0.5646496623712682  1.0000
  C   C42       1.0  0.017247445777736736  0.1740453119359362  0.5751851969396808  1.0000
  O   O4        1.0  0.08768247090831638  0.41746364943633885  0.38130092639925683  1.0000
  O   O5        1.0  0.08772425777476345  0.40362329851252676  0.7589568654583756  1.0000
  O   O6        1.0  0.08769650515139715  0.5993632026088638  0.5631483562373909  1.0000
  O   O7        1.0  0.08771016016142585  0.2217237552758189  0.577109338043369  1.0000
  O   O8        1.0  0.9467675485317031  0.6007811239761252  0.5627253184780805  1.0000
  O   O9        1.0  0.9467953011062162  0.405042780283444  0.7585337578402078  1.0000
  O   O10       1.0  0.9467535141372228  0.41888308606425295  0.38087625726606955  1.0000
  O   O11       1.0  0.9467812033970702  0.22314318260714683  0.5766847662898642  1.0000
