data_image0
_chemical_formula_structural       NC9NC3OH6C7OC3NC3H11C7OC4NC3H9Zn2C4O8
_chemical_formula_sum              "N4 C43 O11 H26 Zn2"
_cell_length_a       15.78231758774541
_cell_length_b       10.298746005989749
_cell_length_c       10.299375074045738
_cell_angle_alpha    85.54279281073397
_cell_angle_beta     90.07708282106614
_cell_angle_gamma    89.64076015714048

_space_group_name_H-M_alt    "P 1"
_space_group_IT_number       1

loop_
  _space_group_symop_operation_xyz
  'x, y, z'

loop_
  _atom_site_type_symbol
  _atom_site_label
  _atom_site_symmetry_multiplicity
  _atom_site_fract_x
  _atom_site_fract_y
  _atom_site_fract_z
  _atom_site_occupancy
  N   N1        1.0  0.7981163832127658  0.41392558462404616  0.5699368572764767  1.0000
  C   C1        1.0  0.7495747804363652  0.3318460503004943  0.5940126386829232  1.0000
  C   C2        1.0  0.6893085800997613  0.22996539684030148  0.6238968859359029  1.0000
  C   C3        1.0  0.7089562603263395  0.10198690787512987  0.661356902991163  1.0000
  C   C4        1.0  0.6322184503322996  0.0399634945133418  0.679586048144216  1.0000
  C   C5        1.0  0.570448827528513  0.1346822079766996  0.6519026303686075  1.0000
  C   C6        1.0  0.4773558001802636  0.11717013131494824  0.6571126415612416  1.0000
  C   C7        1.0  0.4236232143577979  0.22454572669722794  0.625564978375698  1.0000
  C   C8        1.0  0.3354150504735579  0.21018624100888306  0.6298442236669051  1.0000
  C   C9        1.0  0.2809863320248408  0.3206859881117654  0.5973704180561072  1.0000
  N   N2        1.0  0.23723853558988672  0.40951352885601144  0.5712643804365731  1.0000
  C   C10       1.0  0.3002581664105051  0.08829134567100883  0.6657201183968184  1.0000
  C   C11       1.0  0.3530598453145907  0.9811377446908268  0.6972069149669309  1.0000
  C   C12       1.0  0.44108230094185785  0.9951027527477445  0.6930439554560237  1.0000
  O   O1        1.0  0.60692032915718  0.2469362319297168  0.6189967183952303  1.0000
  H   H1        1.0  0.7714116435491916  0.058827989174824236  0.6739389126341002  1.0000
  H   H2        1.0  0.6234744244317086  0.9379807734197477  0.7094521782724681  1.0000
  H   H3        1.0  0.45023974199372174  0.31940157076854847  0.5976424491512664  1.0000
  H   H4        1.0  0.23214045442519413  0.07612960829531201  0.6693422941054175  1.0000
  H   H5        1.0  0.3257130775532256  0.8869303842397155  0.7249389749049515  1.0000
  H   H6        1.0  0.4801588402016709  0.9102295515823196  0.7179919660163643  1.0000
  C   C13       1.0  0.017641013505597103  0.030317855804627758  0.5705833301191994  1.0000
  C   C14       1.0  0.0572872626410148  0.03847330250285541  0.44819418274900835  1.0000
  C   C15       1.0  0.07644337999136464  0.9254829392232843  0.38561658951560895  1.0000
  C   C16       1.0  0.05728790164212505  0.8032367147173513  0.4481450456820122  1.0000
  C   C17       1.0  0.017721975796110012  0.7931112169391021  0.5706291312457594  1.0000
  C   C18       1.0  0.9979456457611965  0.9072174050396596  0.630915979070839  1.0000
  C   C19       1.0  0.1190296002647584  0.9338960647819352  0.2569248232347954  1.0000
  O   O2        1.0  0.17076611152524124  0.8454080696488753  0.23186799759063925  1.0000
  C   C20       1.0  0.10292580832648146  0.042634446314515406  0.15666656910767318  1.0000
  C   C21       1.0  0.022694815682215097  0.102837352765625  0.1443161075252466  1.0000
  C   C22       1.0  0.007854450023863757  0.2046947415731284  0.04836073745534075  1.0000
  N   N3        1.0  0.9262670222544636  0.2657531204878245  0.03690958633987562  1.0000
  C   C23       1.0  0.07329758736278147  0.24595678297826495  0.9634211283246459  1.0000
  C   C24       1.0  0.1527552931641929  0.18559760258792335  0.9739131092400637  1.0000
  C   C25       1.0  0.1675297747858675  0.08416546796235935  0.06956406050725117  1.0000
  H   H7        1.0  0.9439040793097836  0.22219111227855648  0.8027049490751614  1.0000
  H   H8        1.0  0.07414070111286564  0.13283871388601187  0.4020215584578497  1.0000
  H   H9        1.0  0.07257295896771088  0.7159100803880332  0.4004915411650982  1.0000
  H   H10       1.0  0.9673897223436326  0.9001789087426938  0.7252577557084887  1.0000
  H   H11       1.0  0.9432809386437784  0.5666577608478668  0.8022600771486585  1.0000
  H   H12       1.0  0.9713778476358755  0.06992402503769357  0.20812604354855857  1.0000
  H   H13       1.0  0.8770313856672588  0.23576931906507714  0.09971431400547459  1.0000
  H   H14       1.0  0.9145178145906308  0.3415141878733481  0.965632946256755  1.0000
  H   H15       1.0  0.0626250586799959  0.32444448635704437  0.888898875579827  1.0000
  H   H16       1.0  0.20303426965458393  0.2174866580783099  0.9077676361090599  1.0000
  H   H17       1.0  0.22967245431794558  0.038896628988497106  0.0762797269765978  1.0000
  C   C26       1.0  0.017710318305150574  0.41185660387766276  0.18921957249032872  1.0000
  C   C27       1.0  0.08294128513372234  0.5043200202138183  0.18097883071862175  1.0000
  C   C28       1.0  0.1151838298051926  0.55204293895794  0.05956307231366886  1.0000
  C   C29       1.0  0.0828040729635573  0.5040836430459767  0.9457530855013068  1.0000
  C   C30       1.0  0.017652655435629994  0.4115724747809306  0.9519929372292713  1.0000
  C   C31       1.0  0.985330872306266  0.36624711323019743  0.07420487332583736  1.0000
  C   C32       1.0  0.18467153218894072  0.648671870575295  0.050801405679047784  1.0000
  O   O3        1.0  0.2388181679060435  0.6434424216992907  0.9613298798976144  1.0000
  C   C33       1.0  0.19272067349637156  0.7512451894394869  0.1434583709404451  1.0000
  C   C34       1.0  0.2733005540116291  0.7970005335562571  0.17546131037988388  1.0000
  C   C35       1.0  0.28152165173820554  0.89493804808169  0.2617087526556361  1.0000
  C   C36       1.0  0.36427108552414045  0.9404622478324465  0.2947493473217724  1.0000
  N   N4        1.0  0.4307923072286559  0.9770529581499983  0.3213065014024823  1.0000
  C   C37       1.0  0.20917083534319336  0.9485205370214989  0.31568661777067675  1.0000
  C   C38       1.0  0.12887343664240603  0.9047741753368159  0.2831836992274055  1.0000
  C   C39       1.0  0.12048385246994164  0.8071083610722556  0.1972113225129868  1.0000
  H   H18       1.0  0.8955027508661924  0.23589459320941275  0.41220831100534916  1.0000
  H   H19       1.0  0.1093979725628309  0.5382584072180407  0.2692441050986458  1.0000
  H   H20       1.0  0.10802874774175009  0.5400691284084689  0.852086346279822  1.0000
  H   H21       1.0  0.935042844686974  0.29496390317928123  0.07975406509957605  1.0000
  H   H22       1.0  0.9931129465924594  0.375229188126625  0.6269964519983269  1.0000
  H   H23       1.0  0.32962581563150395  0.7557110408522729  0.13424849081074464  1.0000
  H   H24       1.0  0.2148312099618297  0.024348087069055335  0.38238745590892265  1.0000
  H   H25       1.0  0.07297041851297048  0.947038206419275  0.3242490350746916  1.0000
  H   H26       1.0  0.05754491850550769  0.7763445333717629  0.17171586163270836  1.0000
  Zn  Zn1       1.0  0.9248375462486114  0.41264888856870274  0.5703274453913239  1.0000
  Zn  Zn2       1.0  0.11051734213391473  0.4107796205756997  0.5708844084982883  1.0000
  C   C40       1.0  0.017661136527387766  0.40645205579661225  0.8078120938776059  1.0000
  C   C41       1.0  0.017695779637066478  0.4169780716482423  0.3333998936648386  1.0000
  C   C42       1.0  0.017702711645922742  0.6489289895613397  0.5654450596082563  1.0000
  C   C43       1.0  0.01765414098811524  0.1744995780590115  0.5757669968922641  1.0000
  O   O4        1.0  0.0881554145858301  0.41798183932774124  0.3819994908106299  1.0000
  O   O5        1.0  0.08812817024178665  0.4040285772949881  0.7596348449204662  1.0000
  O   O6        1.0  0.08816079267838761  0.5998317769090356  0.5639217471927638  1.0000
  O   O7        1.0  0.0881227287976365  0.22217864967884404  0.5777124909696365  1.0000
  O   O8        1.0  0.9472320962214889  0.6012498601048644  0.5634993627230804  1.0000
  O   O9        1.0  0.9471994739519028  0.4054482209546255  0.7592123912958106  1.0000
  O   O10       1.0  0.9472267184654812  0.4194014383086546  0.38157547571006556  1.0000
  O   O11       1.0  0.9471940326654791  0.22359823933391265  0.5772885732408723  1.0000
