data_image0
_chemical_formula_structural       NC9NC3OH6C6SCOC6H10C6NCOC6H11Zn2C4O8
_chemical_formula_sum              "N3 C42 O11 H27 S1 Zn2"
_cell_length_a       15.78231758774541
_cell_length_b       10.302038109246572
_cell_length_c       10.299662537453274
_cell_angle_alpha    85.5465134691658
_cell_angle_beta     90.07028812251602
_cell_angle_gamma    89.64990665055792

_space_group_name_H-M_alt    "P 1"
_space_group_IT_number       1

loop_
  _space_group_symop_operation_xyz
  'x, y, z'

loop_
  _atom_site_type_symbol
  _atom_site_label
  _atom_site_symmetry_multiplicity
  _atom_site_fract_x
  _atom_site_fract_y
  _atom_site_fract_z
  _atom_site_occupancy
  N   N1        1.0  0.7983744763544343  0.4134577362088858  0.5700632800439964  1.0000
  C   C1        1.0  0.7498224538325245  0.3314050325718847  0.5941334020257205  1.0000
  C   C2        1.0  0.6895433200318578  0.22955768251748365  0.6240106245469801  1.0000
  C   C3        1.0  0.7091747598940917  0.10162102754479241  0.6614618196718687  1.0000
  C   C4        1.0  0.6324290734093566  0.03961788899768881  0.6796866872459968  1.0000
  C   C5        1.0  0.5706714671364983  0.13430564075369422  0.6520097975312522  1.0000
  C   C6        1.0  0.47757621100754344  0.1167992889607008  0.657218599168123  1.0000
  C   C7        1.0  0.42385726021166803  0.22413978442765115  0.6256783410643514  1.0000
  C   C8        1.0  0.3356472682260483  0.20978499303519138  0.6299565943446144  1.0000
  C   C9        1.0  0.2812325821608241  0.32024861892556644  0.5974904095054634  1.0000
  N   N2        1.0  0.2374960660515016  0.409047122867898  0.5713904980398397  1.0000
  C   C10       1.0  0.3004749005838204  0.08792994416139632  0.6658240809024403  1.0000
  C   C11       1.0  0.35326297231386933  0.9808113705532532  0.69730348757632  1.0000
  C   C12       1.0  0.44128720592015375  0.9947718132668848  0.6931414928604975  1.0000
  O   O1        1.0  0.6071572174650393  0.2465229705042069  0.6191116249379967  1.0000
  H   H1        1.0  0.7716246702220563  0.058476216478120735  0.6740408556935849  1.0000
  H   H2        1.0  0.6236721048076843  0.937668504406742  0.7095457869742741  1.0000
  H   H3        1.0  0.4504858371833674  0.31896462085768684  0.5977623550233504  1.0000
  H   H4        1.0  0.23235564045604623  0.075772182598288  0.6694454164898556  1.0000
  H   H5        1.0  0.3259042375594315  0.8866348057615088  0.7250290490514271  1.0000
  H   H6        1.0  0.4803529667008672  0.9099263562938128  0.7180836498673211  1.0000
  C   C13       1.0  0.017859069362650137  0.029974780418954072  0.570686490819579  1.0000
  C   C14       1.0  0.945436360222301  0.03550141545889729  0.4909469271171085  1.0000
  C   C15       1.0  0.9098004607988895  0.9212889056077065  0.450789110010654  1.0000
  C   C16       1.0  0.9457088995643643  0.8003660998298855  0.49089374393830276  1.0000
  C   C17       1.0  0.0180195827804408  0.7925200315919017  0.5707785516090358  1.0000
  C   C18       1.0  0.0537653756927694  0.907981043392759  0.6101757998956756  1.0000
  S   S1        1.0  0.8178727396224306  0.9297854365515439  0.3479007604198061  1.0000
  C   C19       1.0  0.8801893870264754  0.9377085798577818  0.2016651022234024  1.0000
  O   O2        1.0  0.9006268039632768  0.8322528450241478  0.1553761826165887  1.0000
  C   C20       1.0  0.9081437218883727  0.06361839500282263  0.13625112907467196  1.0000
  C   C21       1.0  0.9680655513497837  0.06539363052591218  0.03492429578590972  1.0000
  C   C22       1.0  0.9953067469731783  0.18347919840044646  0.9732826783714623  1.0000
  C   C23       1.0  0.9630846648445609  0.3010254018383518  0.011687092837553426  1.0000
  C   C24       1.0  0.9034178621451122  0.3007206923284995  0.11166163408904595  1.0000
  C   C25       1.0  0.8758941950007181  0.1829414799616973  0.173622574787057  1.0000
  H   H7        1.0  0.1542692381267079  0.22686267106053082  0.7211546892456047  1.0000
  H   H8        1.0  0.916613949295961  0.1283246450926656  0.45958358207184613  1.0000
  H   H9        1.0  0.9171595348586424  0.7129132356060736  0.45904268631474054  1.0000
  H   H10       1.0  0.10959854745550124  0.9028000802555067  0.6716463604756857  1.0000
  H   H11       1.0  0.04565990578955148  0.46222106870665036  0.6008290852906031  1.0000
  H   H12       1.0  0.9942810223806392  0.9755775068768104  0.003705520005891305  1.0000
  H   H13       1.0  0.04153872951286086  0.18379734379043788  0.8957237285015367  1.0000
  H   H14       1.0  0.9842710065876572  0.3923349229451081  0.9638761754709497  1.0000
  H   H15       1.0  0.8783131346797267  0.3919092053031976  0.14112308855248923  1.0000
  H   H16       1.0  0.8291660404593078  0.18601644986917054  0.25004767134752126  1.0000
  C   C26       1.0  0.017997668289692292  0.41138730782828326  0.18935671849161606  1.0000
  C   C27       1.0  0.10449916955625271  0.44288529896872597  0.18580806093625024  1.0000
  C   C28       1.0  0.14832349690199464  0.4568667466929732  0.06733758203497775  1.0000
  C   C29       1.0  0.10435083951929514  0.44257678972504233  0.9506642788366291  1.0000
  C   C30       1.0  0.01788097997000948  0.41110747812948256  0.9521082884039767  1.0000
  C   C31       1.0  0.9752648399151844  0.3952452517327818  0.0720245579900689  1.0000
  N   N3        1.0  0.23656387135247714  0.49105763291665006  0.06712491433709888  1.0000
  C   C32       1.0  0.29652357566503995  0.45061488475239053  0.9730883499233132  1.0000
  O   O3        1.0  0.28104870484118427  0.35223568403665584  0.9114782319701122  1.0000
  C   C33       1.0  0.37788972423929357  0.5201095164246532  0.9509922756702789  1.0000
  C   C34       1.0  0.3881388463286304  0.6480461870187306  0.9873924371792411  1.0000
  C   C35       1.0  0.46502051799987654  0.7128138329675278  0.9654420804773496  1.0000
  C   C36       1.0  0.5322694106974937  0.6511259569956147  0.9066631743952382  1.0000
  C   C37       1.0  0.5227081423892703  0.5246284147484948  0.8692592975373277  1.0000
  C   C38       1.0  0.445970843591982  0.4594023958867406  0.8908809562662938  1.0000
  H   H17       1.0  0.854631880706246  0.35317937425198065  0.40322064050696516  1.0000
  H   H18       1.0  0.13844996193842873  0.45576030222102193  0.2753326358280721  1.0000
  H   H19       1.0  0.13717244486135538  0.4582072288798533  0.8586521940922363  1.0000
  H   H20       1.0  0.9085846069884043  0.37094687608281207  0.0738960668704356  1.0000
  H   H21       1.0  0.984437931567723  0.4007189122162711  0.625082349122239  1.0000
  H   H22       1.0  0.25969822586947156  0.5380178026367397  0.14612309233412102  1.0000
  H   H23       1.0  0.336665466059888  0.6990863325739902  0.031016782185684377  1.0000
  H   H24       1.0  0.4723302285008224  0.8111964122474509  0.9935918482370281  1.0000
  H   H25       1.0  0.5916921054401114  0.7014950506655862  0.8897313766538977  1.0000
  H   H26       1.0  0.5748085456863645  0.47699846464001405  0.8234402771092046  1.0000
  H   H27       1.0  0.440113092463597  0.3612278007685503  0.8613605662342785  1.0000
  Zn  Zn1       1.0  0.9250954760709394  0.41218145757786817  0.5704537796711204  1.0000
  Zn  Zn2       1.0  0.11077503398764366  0.4103128006714811  0.5710106136442283  1.0000
  C   C39       1.0  0.017900035964514727  0.40598796311929974  0.8079312855157272  1.0000
  C   C40       1.0  0.01797250203434153  0.4165079129048892  0.33353324154670116  1.0000
  C   C41       1.0  0.017985649247903135  0.6483846806479208  0.565585849749421  1.0000
  C   C42       1.0  0.01788682505260253  0.17410963605948648  0.5758787461746053  1.0000
  O   O4        1.0  0.08842847936927067  0.41751162480354975  0.38213151465997264  1.0000
  O   O5        1.0  0.08837054660691379  0.40356500451567245  0.7597552625327932  1.0000
  O   O6        1.0  0.08843873031519589  0.5993034285091507  0.5640596058315983  1.0000
  O   O7        1.0  0.08836023231798795  0.22177321077143763  0.5778270737958562  1.0000
  O   O8        1.0  0.9475102143772764  0.6007210481170084  0.5636373193226416  1.0000
  O   O9        1.0  0.9474420310040256  0.40498418407940884  0.7593329069653878  1.0000
  O   O10       1.0  0.9474999640521388  0.41893075969439675  0.3817075976584443  1.0000
  O   O11       1.0  0.9474317169805375  0.22319233634001523  0.5774032541627889  1.0000
