data_image0
_chemical_formula_structural       NC9NC3OH6C7OC6OCH12C7OC6H10Zn2C4O8
_chemical_formula_sum              "N2 C43 O12 H28 Zn2"
_cell_length_a       15.78231758774541
_cell_length_b       10.299359160628079
_cell_length_c       10.299382801718286
_cell_angle_alpha    85.57723515363111
_cell_angle_beta     90.06446718373022
_cell_angle_gamma    89.65438836023732

_space_group_name_H-M_alt    "P 1"
_space_group_IT_number       1

loop_
  _space_group_symop_operation_xyz
  'x, y, z'

loop_
  _atom_site_type_symbol
  _atom_site_label
  _atom_site_symmetry_multiplicity
  _atom_site_fract_x
  _atom_site_fract_y
  _atom_site_fract_z
  _atom_site_occupancy
  N   N1        1.0  0.7985446256827645  0.4130247347613947  0.5700547967367706  1.0000
  C   C1        1.0  0.7499867656452928  0.3309640921334036  0.5941263774552463  1.0000
  C   C2        1.0  0.6897003860448556  0.2291068880580227  0.6240054106176511  1.0000
  C   C3        1.0  0.7093227294594389  0.10115781029121784  0.661458881500834  1.0000
  C   C4        1.0  0.6325726293686945  0.03914869300151769  0.6796848507748963  1.0000
  C   C5        1.0  0.5708217526779119  0.1338456622087909  0.6520062760621224  1.0000
  C   C6        1.0  0.4777252460603899  0.11633765773884752  0.657215387725661  1.0000
  C   C7        1.0  0.42401393540423904  0.22368850974478027  0.6256732221696941  1.0000
  C   C8        1.0  0.33580291755702063  0.20933236721462456  0.6299517295470547  1.0000
  C   C9        1.0  0.28139609449074277  0.3198066463458862  0.5974835818925268  1.0000
  N   N2        1.0  0.2376658993063849  0.408613713397012  0.571382092597676  1.0000
  C   C10       1.0  0.3006218724028825  0.08746559638996332  0.6658213804598521  1.0000
  C   C11       1.0  0.3534023194902489  0.9803366900994034  0.6973026905709259  1.0000
  C   C12       1.0  0.44142755086327234  0.994298446119167  0.6931404487593027  1.0000
  O   O1        1.0  0.607315485117977  0.24607386115411667  0.6191061081241735  1.0000
  H   H1        1.0  0.771769575625291  0.05800878128157083  0.6740386858231302  1.0000
  H   H2        1.0  0.623808411001932  0.93718941755026  0.7095457637461189  1.0000
  H   H3        1.0  0.4506492653425764  0.31852246528183437  0.5977555519541238  1.0000
  H   H4        1.0  0.2325017435691734  0.07530668929248585  0.6694429312890855  1.0000
  H   H5        1.0  0.326036877906915  0.8861510687812642  0.7250299246997702  1.0000
  H   H6        1.0  0.48048727182439727  0.9094448095628778  0.7180841132872446  1.0000
  C   C13       1.0  0.01800960429954923  0.02944189582266743  0.570686659151507  1.0000
  C   C14       1.0  0.9479454412621071  0.03541054096367091  0.48607820852594386  1.0000
  C   C15       1.0  0.9132146437743343  0.9214300490040589  0.4423127237767601  1.0000
  C   C16       1.0  0.948147213778158  0.8001470496798424  0.48633392381978413  1.0000
  C   C17       1.0  0.01820900983441276  0.7921864542210236  0.5707615080422899  1.0000
  C   C18       1.0  0.052853784698426276  0.9074229345753593  0.6122412164466675  1.0000
  C   C19       1.0  0.8386450510472817  0.9298749823614272  0.3541541313408061  1.0000
  O   O2        1.0  0.7847971638170382  0.019290774551127265  0.36555786472178764  1.0000
  C   C20       1.0  0.8251606382724609  0.8369532595765443  0.25306621322116807  1.0000
  C   C21       1.0  0.8940932076690856  0.7828997872396328  0.1892196121372165  1.0000
  C   C22       1.0  0.8804956174442492  0.6966314374247634  0.0930970270465259  1.0000
  C   C23       1.0  0.798189229098841  0.6635372651637345  0.05808566331162024  1.0000
  C   C24       1.0  0.7289717489541127  0.7186281253989364  0.1206196486641411  1.0000
  C   C25       1.0  0.7424918490938932  0.8049561518008984  0.21678842086899586  1.0000
  O   O3        1.0  0.7879483023672752  0.5763946518796784  0.961156733265855  1.0000
  C   C26       1.0  0.7081097110231328  0.5343436478614686  0.9160474848615161  1.0000
  H   H7        1.0  0.1499990601950485  0.225419264244757  0.7307603543664596  1.0000
  H   H8        1.0  0.9207027277979982  0.1290059666451462  0.4530111909039678  1.0000
  H   H9        1.0  0.920025626044312  0.7117865674065162  0.4557975660662936  1.0000
  H   H10       1.0  0.10689898989465463  0.9020143015888152  0.6773730841110712  1.0000
  H   H11       1.0  0.044868437008341644  0.46162948662510184  0.6035600979893068  1.0000
  H   H12       1.0  0.9585065352154224  0.8083451554251969  0.21254534949615667  1.0000
  H   H13       1.0  0.9342803645589581  0.6556343081586137  0.04507849497175753  1.0000
  H   H14       1.0  0.6645233773100823  0.6954597867776553  0.09564919525248228  1.0000
  H   H15       1.0  0.6882337837043687  0.8459120419335725  0.26375476459595015  1.0000
  H   H16       1.0  0.7187036729834816  0.4658272561738774  0.8396049462176003  1.0000
  H   H17       1.0  0.6708874238937156  0.61905770943045  0.8734250926942835  1.0000
  H   H18       1.0  0.6725232556049027  0.4831472508014515  0.9974753718788527  1.0000
  C   C27       1.0  0.018193806471503482  0.4107401224034246  0.18935452339894843  1.0000
  C   C28       1.0  0.10721019801102671  0.4107094316343356  0.18832001330557824  1.0000
  C   C29       1.0  0.1521071525799944  0.4092058436145134  0.07073997424936818  1.0000
  C   C30       1.0  0.10700372930941349  0.41073954302764015  0.9530738232738192  1.0000
  C   C31       1.0  0.01802476471736658  0.41088827942311834  0.9520935608602339  1.0000
  C   C32       1.0  0.9741358539022547  0.41054297742706236  0.07080126148474952  1.0000
  C   C33       1.0  0.24609725310167696  0.41055741989713956  0.06939580025947789  1.0000
  O   O4        1.0  0.28344634711593786  0.47089254915729906  0.9749877441293835  1.0000
  C   C34       1.0  0.29771688229967275  0.3434541345896671  0.17505151071711333  1.0000
  C   C35       1.0  0.3773711403838278  0.39311498045374216  0.20639860171469748  1.0000
  C   C36       1.0  0.42692520943273093  0.3296818449319663  0.3047966691297306  1.0000
  C   C37       1.0  0.39786243224709095  0.21566751791549832  0.3720616397454859  1.0000
  C   C38       1.0  0.3193313653083496  0.1645483925227138  0.34069478396106656  1.0000
  C   C39       1.0  0.26953582179199165  0.2276052324036113  0.24239801052145005  1.0000
  H   H19       1.0  0.8502070763524406  0.4128097767210406  0.39847153963844284  1.0000
  H   H20       1.0  0.14172966447317004  0.4133132248066167  0.2790234833876015  1.0000
  H   H21       1.0  0.14153116739275684  0.41056406611566554  0.8622267200412179  1.0000
  H   H22       1.0  0.9055109231887906  0.4105674364228109  0.07079455560004111  1.0000
  H   H23       1.0  0.9838432598981297  0.4120504182398106  0.6241752849274973  1.0000
  H   H24       1.0  0.4009182782593812  0.4815535779329412  0.15554292632527544  1.0000
  H   H25       1.0  0.4879275012010693  0.3689537570894137  0.3288576279689668  1.0000
  H   H26       1.0  0.4363408423812529  0.16665259108068753  0.4481166071277871  1.0000
  H   H27       1.0  0.29716330326584517  0.0756400226941929  0.3921833453741843  1.0000
  H   H28       1.0  0.20955009407092362  0.18504086258440644  0.21815358375252547  1.0000
  Zn  Zn1       1.0  0.9252655334965575  0.4117483416814167  0.5704453187896219  1.0000
  Zn  Zn2       1.0  0.11094495787661596  0.4098795088357605  0.5710021858417518  1.0000
  C   C40       1.0  0.018053500029537428  0.40568649472143226  0.8079190712315969  1.0000
  C   C41       1.0  0.018159019357307127  0.41594297406848635  0.33352856710812295  1.0000
  C   C42       1.0  0.018168095347746105  0.6480105706237749  0.5655721334743364  1.0000
  C   C43       1.0  0.018044360256445735  0.17361733848043848  0.5758755737610732  1.0000
  O   O5        1.0  0.08861171687861447  0.41697422042461607  0.3821260208115287  1.0000
  O   O6        1.0  0.0885271891099837  0.4032358676606609  0.7597438927929925  1.0000
  O   O7        1.0  0.08861877608600932  0.5989156333808241  0.5640470231928094  1.0000
  O   O8        1.0  0.08852006656678446  0.22129446461367142  0.5778227928477744  1.0000
  O   O9        1.0  0.9476903614431159  0.600333386542659  0.5636247115867368  1.0000
  O   O10       1.0  0.9475987748864704  0.4046551811473542  0.7593215120943677  1.0000
  O   O11       1.0  0.9476833030456016  0.41839348835050694  0.3817020787053893  1.0000
  O   O12       1.0  0.9475916527063033  0.22271372326949757  0.5773989481087101  1.0000
