data_image0
_chemical_formula_structural       NC9NC3OH6C7OC3FC3H9C6SCOC6H10Zn2C4O8
_chemical_formula_sum              "N2 C42 O11 H25 F1 S1 Zn2"
_cell_length_a       15.78231758774541
_cell_length_b       10.29937835083307
_cell_length_c       10.302041481415108
_cell_angle_alpha    85.53259314287666
_cell_angle_beta     90.08006893222067
_cell_angle_gamma    89.65202187042591

_space_group_name_H-M_alt    "P 1"
_space_group_IT_number       1

loop_
  _space_group_symop_operation_xyz
  'x, y, z'

loop_
  _atom_site_type_symbol
  _atom_site_label
  _atom_site_symmetry_multiplicity
  _atom_site_fract_x
  _atom_site_fract_y
  _atom_site_fract_z
  _atom_site_occupancy
  N   N1        1.0  0.7982489293941487  0.41381185058710734  0.5700103176502949  1.0000
  C   C1        1.0  0.749697635634343  0.33173691629315294  0.5940972415684476  1.0000
  C   C2        1.0  0.6894194064435787  0.22986197259973729  0.6239953192953256  1.0000
  C   C3        1.0  0.7090519738046319  0.10189065332256719  0.6614727304067365  1.0000
  C   C4        1.0  0.6323068420462769  0.039870717206287765  0.6797102859178084  1.0000
  C   C5        1.0  0.5705484058890643  0.13458412568310263  0.6520139837621208  1.0000
  C   C6        1.0  0.47745331340511526  0.11707303295147464  0.6572263530983815  1.0000
  C   C7        1.0  0.423733403465975  0.22444260885703726  0.6256641269809522  1.0000
  C   C8        1.0  0.3355235464622048  0.21008393021120142  0.6299453040220875  1.0000
  C   C9        1.0  0.28110787242925295  0.32057748241726824  0.5974565139183909  1.0000
  N   N2        1.0  0.23737056197806042  0.40940004321996026  0.5713384310363032  1.0000
  C   C10       1.0  0.30035227459875713  0.08819587042076393  0.6658377145777015  1.0000
  C   C11       1.0  0.3531413039739421  0.9810482766202998  0.6973390428326052  1.0000
  C   C12       1.0  0.4411654061650044  0.995012499762229  0.6931742049724232  1.0000
  O   O1        1.0  0.6070331618511821  0.24683185922479356  0.6190928275925873  1.0000
  H   H1        1.0  0.7715022587069131  0.058734150769852445  0.6740606192379928  1.0000
  H   H2        1.0  0.6235507736127247  0.9378937099671547  0.7095902729376187  1.0000
  H   H3        1.0  0.45036112720204996  0.3192931334999196  0.5977287467495265  1.0000
  H   H4        1.0  0.23223312855738654  0.07603481649598454  0.6694615269327997  1.0000
  H   H5        1.0  0.3257834166691065  0.8868461992456514  0.7250838658107683  1.0000
  H   H6        1.0  0.48023192638618445  0.9101440569866056  0.718133723494536  1.0000
  C   C13       1.0  0.017724478146550426  0.03022181992498507  0.5707381099829296  1.0000
  C   C14       1.0  0.9293202612614774  0.031123308853032272  0.5544493934457662  1.0000
  C   C15       1.0  0.8846239744160034  0.9142907435223044  0.5477105231140305  1.0000
  C   C16       1.0  0.9295274447353492  0.7958772219704531  0.5544568938313938  1.0000
  C   C17       1.0  0.017903078656807514  0.7929800398654488  0.570621881548601  1.0000
  C   C18       1.0  0.06146408944702775  0.9106776871655676  0.5790107355306473  1.0000
  C   C19       1.0  0.791379980987167  0.9152044610422007  0.529138175515323  1.0000
  O   O2        1.0  0.7586549281357009  0.8308663530456962  0.46239251670622794  1.0000
  C   C20       1.0  0.7352606083986764  0.011695609916564376  0.5862950473327717  1.0000
  C   C21       1.0  0.659785664730524  0.052474543240774274  0.5222996284656922  1.0000
  C   C22       1.0  0.6059592667885115  0.14225312467130835  0.5761861202988507  1.0000
  F   F1        1.0  0.5336656024313826  0.18169179569217708  0.5132614552632346  1.0000
  C   C23       1.0  0.6265772841595614  0.19130088083886165  0.6948280796372048  1.0000
  C   C24       1.0  0.7008357529580546  0.15028139254177209  0.760034121439394  1.0000
  C   C25       1.0  0.7548373355233065  0.06057251614085546  0.706552784676159  1.0000
  H   H7        1.0  0.18470165174126874  0.2359945242987862  0.5994816295973222  1.0000
  H   H8        1.0  0.8952280736018428  0.12298037333877909  0.5455350418983658  1.0000
  H   H9        1.0  0.895225828923168  0.7057553940612462  0.5483021411190918  1.0000
  H   H10       1.0  0.12961717102023207  0.9091787031265925  0.5915673835660382  1.0000
  H   H11       1.0  0.05193275244530082  0.4644948311387336  0.5757361429171495  1.0000
  H   H12       1.0  0.6429076810046966  0.015674791655913012  0.4301100032454326  1.0000
  H   H13       1.0  0.5848865055613685  0.2606929756506844  0.7365719721811583  1.0000
  H   H14       1.0  0.7164037953949701  0.18758139268656326  0.8524333092317555  1.0000
  H   H15       1.0  0.8113034503026965  0.028424540546498234  0.7598643115748491  1.0000
  C   C26       1.0  0.017829703120033846  0.41173003147728005  0.1893929911341341  1.0000
  C   C27       1.0  0.056703193541421504  0.534442888772249  0.1785787420732705  1.0000
  C   C28       1.0  0.07642220973791636  0.5949733464755809  0.05624377262642266  1.0000
  C   C29       1.0  0.05678351554789929  0.5340382028474238  0.9434736349025434  1.0000
  C   C30       1.0  0.017797895566014077  0.41147178170558996  0.9519670254282908  1.0000
  C   C31       1.0  0.998585304264485  0.35089767901166957  0.07549695896218411  1.0000
  S   S1        1.0  0.12683843211616908  0.7510060788100519  0.043849754915952444  1.0000
  C   C32       1.0  0.2311986783434692  0.6801540474473542  0.046744484660757424  1.0000
  O   O3        1.0  0.26435316164473455  0.6566472521657676  0.9397880406071923  1.0000
  C   C33       1.0  0.27789439638757973  0.6483409447894297  0.17041502023022126  1.0000
  C   C34       1.0  0.353043050658006  0.5738595728348845  0.17084586242540678  1.0000
  C   C35       1.0  0.3971981463540235  0.5425179496989094  0.28693621133309444  1.0000
  C   C36       1.0  0.3671038918710898  0.5851695465333289  0.40377628143693656  1.0000
  C   C37       1.0  0.2928658783410507  0.6594829521437  0.4047284845283352  1.0000
  C   C38       1.0  0.24845796245060447  0.6912012651966508  0.28893671968591383  1.0000
  H   H16       1.0  0.9444330197946194  0.1805521477455465  0.41708392122974325  1.0000
  H   H17       1.0  0.07193592171197394  0.5832196127784963  0.2649316557330721  1.0000
  H   H18       1.0  0.07237530633396805  0.5824797756501494  0.8495419851360229  1.0000
  H   H19       1.0  0.9686185808957469  0.25629457339786255  0.0829134254336723  1.0000
  H   H20       1.0  0.003206888781019046  0.36469983312588616  0.6278708136932076  1.0000
  H   H21       1.0  0.3775103759855909  0.5391544517854088  0.08160648564115336  1.0000
  H   H22       1.0  0.45478147654000756  0.48495262463759436  0.2862720763521063  1.0000
  H   H23       1.0  0.4013615140750977  0.560773211841439  0.49354564271693424  1.0000
  H   H24       1.0  0.2697139315513173  0.6927877635408886  0.49532609000654104  1.0000
  H   H25       1.0  0.19151786294136364  0.7497022229974544  0.2928299143639892  1.0000
  Zn  Zn1       1.0  0.9249699422383036  0.41253522662945574  0.5704010748703359  1.0000
  Zn  Zn2       1.0  0.1106495177159943  0.4106660636912447  0.5709582894704195  1.0000
  C   C39       1.0  0.017800783919905028  0.40634674721121833  0.8078249616998021  1.0000
  C   C40       1.0  0.017820704027997403  0.4168561613399051  0.33353453591507853  1.0000
  C   C41       1.0  0.01786518711745888  0.6488042742474074  0.5654697731604708  1.0000
  C   C42       1.0  0.01775623710269869  0.1743970745534298  0.575889793725809  1.0000
  O   O4        1.0  0.08828211374023387  0.4178615337889109  0.3821212159930376  1.0000
  O   O5        1.0  0.08826587544848485  0.4039217437066822  0.7596608209938034  1.0000
  O   O6        1.0  0.08831693189440326  0.5997092721873667  0.5639572884887174  1.0000
  O   O7        1.0  0.08823099394069422  0.22207401526960346  0.5778246509528151  1.0000
  O   O8        1.0  0.9473884026502779  0.6011272756903667  0.5635347131909603  1.0000
  O   O9        1.0  0.9473373465687785  0.4053413075992369  0.7592381762276676  1.0000
  O   O10       1.0  0.94735358497145  0.41928105295175455  0.3816970101686499  1.0000
  O   O11       1.0  0.947302465162206  0.2234935251103396  0.5774005424767565  1.0000
