data_image0
_chemical_formula_structural       NC9NC3OH6C6NCOC6H11C6SCOC6H10Zn2C4O8
_chemical_formula_sum              "N3 C42 O11 H27 S1 Zn2"
_cell_length_a       15.78231758774541
_cell_length_b       10.29965916528486
_cell_length_c       10.302041481415108
_cell_angle_alpha    85.55947833871805
_cell_angle_beta     90.08006893222067
_cell_angle_gamma    89.64856781770791

_space_group_name_H-M_alt    "P 1"
_space_group_IT_number       1

loop_
  _space_group_symop_operation_xyz
  'x, y, z'

loop_
  _atom_site_type_symbol
  _atom_site_label
  _atom_site_symmetry_multiplicity
  _atom_site_fract_x
  _atom_site_fract_y
  _atom_site_fract_z
  _atom_site_occupancy
  N   N1        1.0  0.798194120934837  0.41372215579290184  0.5706753953095189  1.0000
  C   C1        1.0  0.7496460089284552  0.3316524284819966  0.5947237099847527  1.0000
  C   C2        1.0  0.6893717290670901  0.2297839479202246  0.6245738642562875  1.0000
  C   C3        1.0  0.7090092574212506  0.10182074737620983  0.6619910757976939  1.0000
  C   C4        1.0  0.6322665299553365  0.03980474591743399  0.680199456228701  1.0000
  C   C5        1.0  0.5705044220959856  0.13451214560341973  0.6525477086380218  1.0000
  C   C6        1.0  0.4774100084548494  0.11700216380735107  0.657751840501553  1.0000
  C   C7        1.0  0.42368593617895284  0.22436492799181318  0.6262401225943821  1.0000
  C   C8        1.0  0.33547663581010817  0.21000716028665534  0.6305145451042271  1.0000
  C   C9        1.0  0.2810566783349446  0.32049370258088583  0.5980777327746807  1.0000
  N   N2        1.0  0.23731592454883602  0.409310628318835  0.5720014333171695  1.0000
  C   C10       1.0  0.3003100891134236  0.08812683329633164  0.6663496177435837  1.0000
  C   C11       1.0  0.35310327221990795  0.9809860371340199  0.6978005422118401  1.0000
  C   C12       1.0  0.441126833067682  0.9949493743602449  0.6936422733253418  1.0000
  O   O1        1.0  0.6069848266125173  0.24675275794482077  0.6196793554350546  1.0000
  H   H1        1.0  0.7714612153477134  0.058666982750478214  0.6745586631824134  1.0000
  H   H2        1.0  0.6235144148078243  0.9378342082850412  0.7100314717809919  1.0000
  H   H3        1.0  0.45030998289738317  0.31920943514496747  0.5983493614294038  1.0000
  H   H4        1.0  0.2321914145128807  0.07596655089092308  0.669967709362026  1.0000
  H   H5        1.0  0.32574903679472145  0.886789936110426  0.7255010511625823  1.0000
  H   H6        1.0  0.4801966433366793  0.9100863157929279  0.7185618684975126  1.0000
  C   C13       1.0  0.01768454010905529  0.030156460779716898  0.5712227413121924  1.0000
  C   C14       1.0  0.018266266033421186  0.039478843831070254  0.43443989753018264  1.0000
  C   C15       1.0  0.01980876205498361  0.9273265753318607  0.36562475450535126  1.0000
  C   C16       1.0  0.018425898641710958  0.8042868448967831  0.4347366958706971  1.0000
  C   C17       1.0  0.01783357387126938  0.7928662286661844  0.5714652964855638  1.0000
  C   C18       1.0  0.01776439532502949  0.9064061348790441  0.6389374685501736  1.0000
  N   N3        1.0  0.01910183185215275  0.9404548790743829  0.22558862688562864  1.0000
  C   C19       1.0  0.058823020189077146  0.8489545226876213  0.14600075646212063  1.0000
  O   O2        1.0  0.11727295371335633  0.7755324294394756  0.19314451945397226  1.0000
  C   C20       1.0  0.03420046223932127  0.843053126138801  0.007591930329567509  1.0000
  C   C21       1.0  0.9558528445058414  0.8937135516697684  0.961020213948474  1.0000
  C   C22       1.0  0.9331534856397165  0.8869733807632864  0.8304590033382997  1.0000
  C   C23       1.0  0.9880125486382817  0.8293648422284607  0.7451876663135417  1.0000
  C   C24       1.0  0.06561433594600108  0.777924864470545  0.7903812273349575  1.0000
  C   C25       1.0  0.08863716801121924  0.7843054893223417  0.9208389641568564  1.0000
  H   H7        1.0  0.01577848441107066  0.21984343288755803  0.8292365890833284  1.0000
  H   H8        1.0  0.01817107747414992  0.1341077262910444  0.3806289904267737  1.0000
  H   H9        1.0  0.016323922581344075  0.7175356335448154  0.3819371555486095  1.0000
  H   H10       1.0  0.01732728012245288  0.8983541277327319  0.7443816398583387  1.0000
  H   H11       1.0  0.01647908938058995  0.4610475235738865  0.6239106291151073  1.0000
  H   H12       1.0  0.9949276024486424  0.026846578103723262  0.17958576992085185  1.0000
  H   H13       1.0  0.9114490042992315  0.9368341370830559  0.02535364300112053  1.0000
  H   H14       1.0  0.8727693351230205  0.9260253738939939  0.7954989234450665  1.0000
  H   H15       1.0  0.970272623363669  0.8242207152386685  0.6441998368307869  1.0000
  H   H16       1.0  0.10801346990981053  0.7330292553457624  0.7242784313404793  1.0000
  H   H17       1.0  0.14923359451897444  0.744066012113555  0.9535814875784596  1.0000
  C   C26       1.0  0.017774975365448142  0.41164046875746374  0.1900570894753677  1.0000
  C   C27       1.0  0.056643708645605306  0.5343455409256659  0.17930056632750535  1.0000
  C   C28       1.0  0.07636037829144238  0.5948721584667129  0.05699407128841116  1.0000
  C   C29       1.0  0.056724046340318246  0.5339408806748513  0.9441952687866331  1.0000
  C   C30       1.0  0.017743177822853617  0.4113822353696086  0.9526310022850755  1.0000
  C   C31       1.0  0.9985329347639438  0.3508119756068906  0.07613244087997639  1.0000
  S   S1        1.0  0.1267705518353628  0.7508949918009664  0.04467345364481745  1.0000
  C   C32       1.0  0.23113354474403813  0.6800474554199518  0.047534853563485635  1.0000
  O   O3        1.0  0.26428893932018904  0.656542151452195  0.9405673515715005  1.0000
  C   C33       1.0  0.27783049606904253  0.6482363710430983  0.17119042378671945  1.0000
  C   C34       1.0  0.35298203771747616  0.5737597243222023  0.17158622886116315  1.0000
  C   C35       1.0  0.3971383484168025  0.5424200895557802  0.2876618342134447  1.0000
  C   C36       1.0  0.36704244048308676  0.5850689804953528  0.40452196824883035  1.0000
  C   C37       1.0  0.29280154608649833  0.659377671528165  0.40550912944715933  1.0000
  C   C38       1.0  0.24839240058981438  0.6910939723136702  0.2897322853605593  1.0000
  H   H18       1.0  0.9443872539847428  0.18047725137097093  0.4176392701318543  1.0000
  H   H19       1.0  0.0718745459159702  0.5831191704478629  0.26567642526776414  1.0000
  H   H20       1.0  0.07231395921882022  0.5823793802561286  0.8502864066405689  1.0000
  H   H21       1.0  0.9685698788212939  0.2562148717860988  0.08350440467452747  1.0000
  H   H22       1.0  0.0031539842200296597  0.36461325408735723  0.6285127883450561  1.0000
  H   H23       1.0  0.3774507084392267  0.5390568050287019  0.08233052628316195  1.0000
  H   H24       1.0  0.45472391020579317  0.4848584165433447  0.28697061966622783  1.0000
  H   H25       1.0  0.4013010084462614  0.5606741935512898  0.4942798531381303  1.0000
  H   H26       1.0  0.2696483081876264  0.6926803700075688  0.4961224019930841  1.0000
  H   H27       1.0  0.19145003320641196  0.7495912187073519  0.29365299974011405  1.0000
  Zn  Zn1       1.0  0.924915183269164  0.41244561282659475  0.5710655519870809  1.0000
  Zn  Zn2       1.0  0.11059483120765679  0.41057656847147905  0.571621887305731  1.0000
  C   C39       1.0  0.017746264856112415  0.4062575260167427  0.808486527665814  1.0000
  C   C40       1.0  0.017765777551580264  0.41676627340909067  0.3342010456623621  1.0000
  C   C41       1.0  0.017801268837285722  0.6486996711066131  0.5662453946738848  1.0000
  C   C42       1.0  0.01771070990312862  0.17432256866788798  0.576442247191961  1.0000
  O   O4        1.0  0.08822714828910105  0.4177715820754402  0.38278819868214464  1.0000
  O   O5        1.0  0.08821145039345701  0.40383267635883846  0.7603212462028939  1.0000
  O   O6        1.0  0.08825491685292541  0.5996077837227614  0.5647098149990477  1.0000
  O   O7        1.0  0.08818361847562484  0.2219964846722624  0.5783995323453686  1.0000
  O   O8        1.0  0.9473263326378455  0.6010256972650405  0.564287906750764  1.0000
  O   O9        1.0  0.9472828664823053  0.4052521501916786  0.7598992692202613  1.0000
  O   O10       1.0  0.9472985644906055  0.41919101118140745  0.38236466062021934  1.0000
  O   O11       1.0  0.9472550346677866  0.22341590445671367  0.5779760916273868  1.0000
