data_image0
_chemical_formula_structural       NC9NC3OH6C7OC3NC3H11C7OC3NC3H11Zn2C4O8
_chemical_formula_sum              "N4 C42 O11 H28 Zn2"
_cell_length_a       15.78231758774541
_cell_length_b       10.298746005989749
_cell_length_c       10.298749378158432
_cell_angle_alpha    85.5599185525692
_cell_angle_beta     90.09282152326762
_cell_angle_gamma    89.64076015714048

_space_group_name_H-M_alt    "P 1"
_space_group_IT_number       1

loop_
  _space_group_symop_operation_xyz
  'x, y, z'

loop_
  _atom_site_type_symbol
  _atom_site_label
  _atom_site_symmetry_multiplicity
  _atom_site_fract_x
  _atom_site_fract_y
  _atom_site_fract_z
  _atom_site_occupancy
  N   N1        1.0  0.7978618069298081  0.413499330906147  0.5698824585701068  1.0000
  C   C1        1.0  0.7493244900641176  0.33142697276316335  0.5939591558042006  1.0000
  C   C2        1.0  0.6890636096468636  0.2295552267918206  0.6238445398352308  1.0000
  C   C3        1.0  0.7087179584124849  0.1015879033976399  0.6613059818460807  1.0000
  C   C4        1.0  0.631983393525515  0.039569923530824  0.6795358204243991  1.0000
  C   C5        1.0  0.5702088425885666  0.13428038549856702  0.6518513495889151  1.0000
  C   C6        1.0  0.4771167427135483  0.11676986176589632  0.6570615589671123  1.0000
  C   C7        1.0  0.42337854085456655  0.2241360538509909  0.6255126957282182  1.0000
  C   C8        1.0  0.3351711387509274  0.20977784366172103  0.6297921037992358  1.0000
  C   C9        1.0  0.2807366393961237  0.320267911415516  0.5973170629052091  1.0000
  N   N2        1.0  0.2369841956292991  0.4090876708281104  0.5712100322283535  1.0000
  C   C10       1.0  0.30002064122540245  0.08789364172125991  0.6656693632257173  1.0000
  C   C11       1.0  0.3528279253306806  0.980749425895972  0.697157357533853  1.0000
  C   C12       1.0  0.44084963987825215  0.9947131931146947  0.6929942396665727  1.0000
  O   O1        1.0  0.6066744863886473  0.2465246013061253  0.6189441858952536  1.0000
  H   H1        1.0  0.7711755814533923  0.058432734971171074  0.673888470100785  1.0000
  H   H2        1.0  0.6232446843191084  0.9375961045259741  0.7094030866415377  1.0000
  H   H3        1.0  0.4499900977913035  0.31898357515561715  0.5975891043482613  1.0000
  H   H4        1.0  0.23190357405079984  0.07573298399429795  0.6692916767196122  1.0000
  H   H5        1.0  0.3254860943616338  0.8865503314390679  0.7248904723820662  1.0000
  H   H6        1.0  0.47993062032083944  0.9098474281120081  0.7179431992336112  1.0000
  C   C13       1.0  0.017386552306126513  0.029891794778536873  0.5705289560042521  1.0000
  C   C14       1.0  0.05701101403000908  0.03801076138890114  0.44813515302754126  1.0000
  C   C15       1.0  0.07615599147289198  0.925001745833793  0.3855551793816845  1.0000
  C   C16       1.0  0.05701164428386085  0.8027741589572902  0.44808601409140203  1.0000
  C   C17       1.0  0.01746752275004204  0.7926851695647864  0.5705747588730579  1.0000
  C   C18       1.0  0.9977019248297968  0.906809327146731  0.6308638999720746  1.0000
  C   C19       1.0  0.11871930235821204  0.9333765127058928  0.2568585177466749  1.0000
  O   O2        1.0  0.17045135306492964  0.8448810489759784  0.23180073895656372  1.0000
  C   C20       1.0  0.1025976626949574  0.0420850106254389  0.15659644985835297  1.0000
  C   C21       1.0  0.02236447145224596  0.1022842358193996  0.14424551847210232  1.0000
  C   C22       1.0  0.007507024057632039  0.20411302355886396  0.048286498320011084  1.0000
  N   N3        1.0  0.9259175577827984  0.2651679892706107  0.03683491160992847  1.0000
  C   C23       1.0  0.07293504065864509  0.24534974732374604  0.9633436581397783  1.0000
  C   C24       1.0  0.15239461421639722  0.18499369423998235  0.9738360381635802  1.0000
  C   C25       1.0  0.16718612338245586  0.08359006994545215  0.06949062793305161  1.0000
  H   H7        1.0  0.9436909398234474  0.22183423889889076  0.8026594047212325  1.0000
  H   H8        1.0  0.07385623296615162  0.13236241026592688  0.40196077235867045  1.0000
  H   H9        1.0  0.0722882184511251  0.71543332072126  0.4004306968650191  1.0000
  H   H10       1.0  0.9671627959006065  0.8997989509598804  0.7252092653118256  1.0000
  H   H11       1.0  0.9430677199624488  0.5663007548668448  0.8022145158720797  1.0000
  H   H12       1.0  0.9710588626919705  0.0693899276869363  0.2080578817854195  1.0000
  H   H13       1.0  0.8766931015369671  0.23520290782453368  0.09964202832803637  1.0000
  H   H14       1.0  0.91415566162882  0.34090781148735294  0.965555560208057  1.0000
  H   H15       1.0  0.062249245709822265  0.32381523812578683  0.8888185706151348  1.0000
  H   H16       1.0  0.20266181565421748  0.21686303398985274  0.9076880489002024  1.0000
  H   H17       1.0  0.2293299984207715  0.03832323268586113  0.07620654986214492  1.0000
  C   C26       1.0  0.01738796767830353  0.4113168711438657  0.18915069153687059  1.0000
  C   C27       1.0  0.06368324528946956  0.5277265371025357  0.1792779517921208  1.0000
  C   C28       1.0  0.08624285715367863  0.5874008219425617  0.05704440624940399  1.0000
  C   C29       1.0  0.0636866179539266  0.5277753688322555  0.9440339354873335  1.0000
  C   C30       1.0  0.01746609530219989  0.411260049093618  0.9519530341340148  1.0000
  C   C31       1.0  0.9944154542828794  0.3539527289924522  0.07493395217865273  1.0000
  C   C32       1.0  0.13581737119936776  0.7096812482517467  0.04652148178035387  1.0000
  O   O3        1.0  0.1887632691068324  0.7274936986478924  0.9553357306330406  1.0000
  C   C33       1.0  0.1253294395597515  0.8117461653005333  0.13938555321252388  1.0000
  C   C34       1.0  0.046062723916280746  0.8351184619296117  0.19585153028535096  1.0000
  C   C35       1.0  0.03659515501479427  0.9327239618375474  0.28252900857457597  1.0000
  N   N4        1.0  0.9559268307689485  0.9553879013264412  0.3399585906199025  1.0000
  C   C36       1.0  0.10652074375339082  0.008279097636009425  0.3121426389969071  1.0000
  C   C37       1.0  0.18511996749493487  0.9868643253266007  0.2552154263966868  1.0000
  C   C38       1.0  0.19453874006287442  0.8895710128723953  0.16891462384488687  1.0000
  H   H18       1.0  0.9310355229272633  0.19033486088996443  0.41524906015026253  1.0000
  H   H19       1.0  0.08303846325707886  0.5713816497458635  0.2668852372740451  1.0000
  H   H20       1.0  0.0815610178840851  0.5731216565125565  0.8496843809592103  1.0000
  H   H21       1.0  0.9587341829448023  0.2642194488858578  0.08179227487721064  1.0000
  H   H22       1.0  0.9304392653188092  0.1908638522149062  0.7596327845597024  1.0000
  H   H23       1.0  0.9913858392417714  0.7786556645817932  0.17163982701763691  1.0000
  H   H24       1.0  0.9033797266784535  0.8996389468317327  0.31856836340232886  1.0000
  H   H25       1.0  0.9481711159499129  0.02799041504981803  0.4044272000141429  1.0000
  H   H26       1.0  0.10001799936397937  0.0839652473271606  0.3788605634048763  1.0000
  H   H27       1.0  0.23889192647284863  0.04579624083646072  0.27801789687128853  1.0000
  H   H28       1.0  0.25609259732693235  0.8743066624753422  0.1260993763942979  1.0000
  Zn  Zn1       1.0  0.9245830394971781  0.41222275127198205  0.5702730615426819  1.0000
  Zn  Zn2       1.0  0.11026293453166836  0.4103536492909461  0.5708300458361739  1.0000
  C   C39       1.0  0.017448906202264025  0.4060967046850166  0.8077667437962666  1.0000
  C   C40       1.0  0.017399095632302908  0.4164813142182009  0.3333364972405046  1.0000
  C   C41       1.0  0.01744733574431878  0.6485013969896527  0.5653904900367166  1.0000
  C   C42       1.0  0.017400602572107404  0.17407506210961543  0.5757128199607542  1.0000
  O   O4        1.0  0.08786738216044476  0.4174995678027993  0.38193794308453644  1.0000
  O   O5        1.0  0.08790736352265882  0.4036588661660807  0.7595876622067474  1.0000
  O   O6        1.0  0.08790514560049756  0.5994037302891588  0.5638671196753735  1.0000
  O   O7        1.0  0.08786953671364484  0.22175471361578958  0.5776583880435033  1.0000
  O   O8        1.0  0.9469763739517659  0.6008216875863852  0.5634447191384495  1.0000
  O   O9        1.0  0.9469785920286319  0.4050783839065031  0.7591651925122214  1.0000
  O   O10       1.0  0.9469386105579822  0.41891904039907435  0.3815139118547026  1.0000
  O   O11       1.0  0.9469407651167077  0.2231741769152431  0.5772344541891741  1.0000
