data_image0
_chemical_formula_structural       NC9NC3OH6C6NCOC6H11C7OC3NC3H11Zn2C4O8
_chemical_formula_sum              "N4 C42 O11 H28 Zn2"
_cell_length_a       15.78231758774541
_cell_length_b       10.29965916528486
_cell_length_c       10.298749378158432
_cell_angle_alpha    85.57464278776027
_cell_angle_beta     90.09282152326762
_cell_angle_gamma    89.64856781770791

_space_group_name_H-M_alt    "P 1"
_space_group_IT_number       1

loop_
  _space_group_symop_operation_xyz
  'x, y, z'

loop_
  _atom_site_type_symbol
  _atom_site_label
  _atom_site_symmetry_multiplicity
  _atom_site_fract_x
  _atom_site_fract_y
  _atom_site_fract_z
  _atom_site_occupancy
  N   N1        1.0  0.7979879996883551  0.4133446239875236  0.5702472029883334  1.0000
  C   C1        1.0  0.7494433556615914  0.3312812486302792  0.5943027219778616  1.0000
  C   C2        1.0  0.6891733804564156  0.2294206524795055  0.6241618186595415  1.0000
  C   C3        1.0  0.7088163047033338  0.10146733505607708  0.6615902395249946  1.0000
  C   C4        1.0  0.6320762030468814  0.03945614303157163  0.6798040747621783  1.0000
  C   C5        1.0  0.5703101075610234  0.13415623897832574  0.652144043352731  1.0000
  C   C6        1.0  0.4772164444017183  0.11664763176525361  0.6573497342528136  1.0000
  C   C7        1.0  0.42348782785746414  0.22400207266491878  0.6258285761697784  1.0000
  C   C8        1.0  0.335279143898141  0.20964543397583046  0.6301042791969325  1.0000
  C   C9        1.0  0.2808545087478241  0.3201234086372924  0.597657749554805  1.0000
  N   N2        1.0  0.23710999452876  0.40893344676386256  0.571573638246049  1.0000
  C   C10       1.0  0.3001177649357948  0.08777457221098817  0.6659500871884145  1.0000
  C   C11       1.0  0.3529154835436852  0.9806420832759194  0.6974104336202387  1.0000
  C   C12       1.0  0.44093844473231736  0.9946043221660807  0.6932509190133482  1.0000
  O   O1        1.0  0.6067857721703921  0.24638816970277055  0.6192658435576006  1.0000
  H   H1        1.0  0.7712700749870235  0.058316889944988626  0.6741615918658312  1.0000
  H   H2        1.0  0.6233283899397947  0.9374934850191422  0.7096450272906765  1.0000
  H   H3        1.0  0.4501078524815166  0.31883921294746775  0.5979294595831388  1.0000
  H   H4        1.0  0.23199961209605544  0.07561524546299703  0.6695692627027356  1.0000
  H   H5        1.0  0.325565242776825  0.8864532988710413  0.7251192409975153  1.0000
  H   H6        1.0  0.48001184862728447  0.909747845686362  0.7181779795151333  1.0000
  C   C13       1.0  0.017478497794706893  0.029779073546483792  0.5707947129631052  1.0000
  C   C14       1.0  0.018040498423527396  0.03906532773404536  0.43397089223073393  1.0000
  C   C15       1.0  0.019573070692983308  0.9268948828842022  0.36513513379375007  1.0000
  C   C16       1.0  0.0182001738327624  0.803873407193996  0.4342677794851102  1.0000
  C   C17       1.0  0.017627566535521222  0.7924889054997789  0.5710373408003504  1.0000
  C   C18       1.0  0.01756811807310088  0.906046633340314  0.6385297259543294  1.0000
  N   N3        1.0  0.01884594604231138  0.9399861984632905  0.2250570546156918  1.0000
  C   C19       1.0  0.05855565710458266  0.8484648202930176  0.1454453415221113  1.0000
  O   O2        1.0  0.11701238917634371  0.7750551792687377  0.19260322768601168  1.0000
  C   C20       1.0  0.033913139378249024  0.8425268654047982  0.006995051332800983  1.0000
  C   C21       1.0  0.9555588055914667  0.893174989808291  0.9604093831514846  1.0000
  C   C22       1.0  0.9328406186443129  0.8864003333766929  0.8298090594471637  1.0000
  C   C23       1.0  0.9876873847620865  0.8287692718672338  0.7445121771182732  1.0000
  C   C24       1.0  0.06529568938091934  0.7773412312204738  0.7897192770767041  1.0000
  C   C25       1.0  0.08833733460533089  0.7837563142665438  0.9202160959944141  1.0000
  H   H7        1.0  0.015609649975000917  0.2195341956277055  0.8288858556664163  1.0000
  H   H8        1.0  0.01793754985564089  0.1336799969573328  0.3801438646343718  1.0000
  H   H9        1.0  0.016090583611812592  0.7171082497406912  0.38145242165197324  1.0000
  H   H10       1.0  0.01714620885239393  0.8980224774800079  0.7440054858773688  1.0000
  H   H11       1.0  0.016280645125543725  0.4606840529508752  0.6234983848285787  1.0000
  H   H12       1.0  0.9946650826200562  0.026365746619704256  0.17904041626770728  1.0000
  H   H13       1.0  0.9111642428341803  0.9363125678036248  0.02476208499928534  1.0000
  H   H14       1.0  0.8724514265749698  0.9254430923963837  0.7948385063292283  1.0000
  H   H15       1.0  0.9699328961495  0.8235984706584007  0.6434940940367375  1.0000
  H   H16       1.0  0.10768529073704713  0.7324281621654346  0.7235966782259942  1.0000
  H   H17       1.0  0.1489384828744822  0.7435254854389154  0.9529684283125133  1.0000
  C   C26       1.0  0.01751396559373175  0.4111624030945624  0.18951487278538148  1.0000
  C   C27       1.0  0.06381963589242767  0.5275593280633195  0.17967217180680373  1.0000
  C   C28       1.0  0.08638457528842469  0.5872270815774878  0.05745402482978279  1.0000
  C   C29       1.0  0.06382301291642678  0.5276081544484266  0.9444281681027302  1.0000
  C   C30       1.0  0.01759208814473534  0.41110558726346524  0.9523172007199605  1.0000
  C   C31       1.0  0.9945363309087666  0.35380453942484213  0.07528333097894246  1.0000
  C   C32       1.0  0.13597000614459653  0.7094941243444606  0.04696265403888389  1.0000
  O   O3        1.0  0.18891749429140714  0.7273046251752591  0.955781499279921  1.0000
  C   C33       1.0  0.1254911865386057  0.8115478704301844  0.13985306266695874  1.0000
  C   C34       1.0  0.04622655750000315  0.834917608971038  0.19632507081072514  1.0000
  C   C35       1.0  0.03676770250945638  0.9325124259972764  0.28302773557192173  1.0000
  N   N4        1.0  0.9561014016285894  0.9551738849273437  0.34046316590117875  1.0000
  C   C36       1.0  0.10670003657208693  0.008059292317295963  0.3126608625114766  1.0000
  C   C37       1.0  0.18529734847035528  0.9866468638458816  0.2557281239668878  1.0000
  C   C38       1.0  0.194707434998465  0.8893642001045861  0.1694022155010826  1.0000
  H   H18       1.0  0.9311417922663469  0.19020457923051692  0.4155562184112087  1.0000
  H   H19       1.0  0.08317875125069585  0.5712096626725778  0.2672907222099883  1.0000
  H   H20       1.0  0.08170146122001376  0.5729494789962482  0.850090314892717  1.0000
  H   H21       1.0  0.958847048466685  0.2640810805887357  0.08211849858125575  1.0000
  H   H22       1.0  0.9305455818845683  0.19073351265757665  0.7599400793234605  1.0000
  H   H23       1.0  0.9915446320051716  0.7784609914530962  0.17209879768102376  1.0000
  H   H24       1.0  0.9035493204474089  0.8994310321327053  0.3190585530241792  1.0000
  H   H25       1.0  0.9483521685328089  0.027768452335545035  0.4049505099074928  1.0000
  H   H26       1.0  0.1002040492032159  0.08373715819058791  0.3793983172439621  1.0000
  H   H27       1.0  0.2390745687036666  0.04557232928190169  0.2785458014435498  1.0000
  H   H28       1.0  0.2562599295095018  0.8741015203843863  0.12658302918297282  1.0000
  Zn  Zn1       1.0  0.924709118286725  0.4120681840744731  0.5706374765477378  1.0000
  Zn  Zn2       1.0  0.11038884645368996  0.41019928666587746  0.5711939785314757  1.0000
  C   C39       1.0  0.017574438077708532  0.405942807980779  0.8081295780143711  1.0000
  C   C40       1.0  0.01752555461290739  0.41632628092273394  0.33370201114036036  1.0000
  C   C41       1.0  0.017594508745540915  0.648320969191847  0.5658158752278115  1.0000
  C   C42       1.0  0.017505420287680318  0.17394656007843667  0.5760157824851224  1.0000
  O   O4        1.0  0.08799393204751516  0.4173444230598977  0.3823037197381858  1.0000
  O   O5        1.0  0.08803267775557555  0.4035052362822633  0.7599498673562892  1.0000
  O   O6        1.0  0.08804793531701338  0.5992286762107186  0.5642798355291119  1.0000
  O   O7        1.0  0.08797861111800276  0.2216209930664239  0.5779736539955203  1.0000
  O   O8        1.0  0.9471192902590336  0.600646478313104  0.5638578008869557  1.0000
  O   O9        1.0  0.9471040329916115  0.40492459865705466  0.7595277639591931  1.0000
  O   O10       1.0  0.9470652871710856  0.4187637402954829  0.38188005479413323  1.0000
  O   O11       1.0  0.9470499662462685  0.22304030100620476  0.5775500864245731  1.0000
