data_image0
_chemical_formula_structural       NC9NC3OH6C7OC3NC3H11C7OC6OCH12Zn2C4O8
_chemical_formula_sum              "N3 C43 O12 H29 Zn2"
_cell_length_a       15.78231758774541
_cell_length_b       10.298746005989749
_cell_length_c       10.299362532796529
_cell_angle_alpha    85.58216748152913
_cell_angle_beta     90.0991944518132
_cell_angle_gamma    89.64076015714048

_space_group_name_H-M_alt    "P 1"
_space_group_IT_number       1

loop_
  _space_group_symop_operation_xyz
  'x, y, z'

loop_
  _atom_site_type_symbol
  _atom_site_label
  _atom_site_symmetry_multiplicity
  _atom_site_fract_x
  _atom_site_fract_y
  _atom_site_fract_z
  _atom_site_occupancy
  N   N1        1.0  0.7977603290030574  0.4129433378199696  0.5700102704080521  1.0000
  C   C1        1.0  0.7492247205656937  0.3308803400804581  0.5940848158701157  1.0000
  C   C2        1.0  0.6889659607481274  0.2290202127812997  0.623967528997706  1.0000
  C   C3        1.0  0.7086229676934843  0.10106745343668355  0.6614256230209836  1.0000
  C   C4        1.0  0.631889696354891  0.03905656086438558  0.6796538323701609  1.0000
  C   C5        1.0  0.5701131809901093  0.13375625981864703  0.6519718357390671  1.0000
  C   C6        1.0  0.4770214508198391  0.11624776168199058  0.6571815794727156  1.0000
  C   C7        1.0  0.42328101032442367  0.2236016883767733  0.6256355358049961  1.0000
  C   C8        1.0  0.3350739118779636  0.20924514191179933  0.6299145614186317  1.0000
  C   C9        1.0  0.2806371081672414  0.3197225842011222  0.5974424228697233  1.0000
  N   N2        1.0  0.2368828119041919  0.4085321938685833  0.5713377254189675  1.0000
  C   C10       1.0  0.29992596012213857  0.08737488813127237  0.6657886144384129  1.0000
  C   C11       1.0  0.352735478544728  0.9802429140320145  0.6972737946153253  1.0000
  C   C12       1.0  0.44075689768681175  0.9942050627370946  0.6931110488123904  1.0000
  O   O1        1.0  0.6065764897718084  0.24598768216345146  0.6190676130100128  1.0000
  H   H1        1.0  0.7710814835594811  0.0579171767595108  0.6740069867590639  1.0000
  H   H2        1.0  0.6231531064625728  0.9370943534879781  0.7095184293030767  1.0000
  H   H3        1.0  0.4498905858658706  0.31843835370397144  0.5977144400000063  1.0000
  H   H4        1.0  0.2318091499787608  0.07521563866705794  0.6694106042004939  1.0000
  H   H5        1.0  0.32539561545518453  0.8860546015001389  0.7250044309117569  1.0000
  H   H6        1.0  0.4798396484515006  0.9093489972511434  0.7180577786519518  1.0000
  C   C13       1.0  0.017285120253381248  0.029336053034010545  0.5706567100637117  1.0000
  C   C14       1.0  0.05690089718806712  0.037407436067308675  0.44827384561230255  1.0000
  C   C15       1.0  0.07604143409665975  0.9243740910206225  0.3856994648364154  1.0000
  C   C16       1.0  0.056901523955130706  0.8021708145317376  0.4482247110677873  1.0000
  C   C17       1.0  0.01736609394736499  0.7921294456272429  0.5707025088390438  1.0000
  C   C18       1.0  0.9976047740090808  0.9062770420837215  0.6309862618033728  1.0000
  C   C19       1.0  0.11859561295609833  0.932698823925576  0.2570143050230289  1.0000
  O   O2        1.0  0.17032588561914652  0.8441936183727984  0.23195876568573803  1.0000
  C   C20       1.0  0.10246685892183116  0.041368342520040624  0.1567611977122827  1.0000
  C   C21       1.0  0.02223279128478528  0.10156276598808756  0.1444113701480576  1.0000
  C   C22       1.0  0.0073685348537562145  0.20335424731726404  0.048460926003446536  1.0000
  N   N3        1.0  0.9257782560000655  0.26440476094528176  0.03701036273955105  1.0000
  C   C23       1.0  0.07279052410172704  0.2445579474805939  0.9635256772974867  1.0000
  C   C24       1.0  0.15225084217518559  0.18420597356555746  0.9740171196009015  1.0000
  C   C25       1.0  0.16704913877596383  0.08283953732657645  0.0696631605703113  1.0000
  H   H7        1.0  0.9436059792256621  0.22136874352981195  0.8027664129199963  1.0000
  H   H8        1.0  0.07374283969392814  0.13174113352728845  0.40210359161993825  1.0000
  H   H9        1.0  0.07217471660818298  0.7148114491284432  0.40057365287152336  1.0000
  H   H10       1.0  0.9670723396149871  0.8993033449594809  0.7253231953504942  1.0000
  H   H11       1.0  0.9429827277963506  0.5658350865363714  0.8023215638312546  1.0000
  H   H12       1.0  0.9709317105064014  0.06869326646875384  0.20821803045081633  1.0000
  H   H13       1.0  0.8765582564060862  0.23446409729819417  0.09981186628755823  1.0000
  H   H14       1.0  0.9140113020235019  0.34011687157509596  0.9657373816846233  1.0000
  H   H15       1.0  0.06209944102017806  0.32299446483659966  0.8890072501962933  1.0000
  H   H16       1.0  0.2025133499003462  0.21604959667072587  0.9078750420866202  1.0000
  H   H17       1.0  0.22919349036100645  0.037575311045489945  0.07637848228697441  1.0000
  C   C26       1.0  0.01725947388100546  0.4106128592941771  0.18931252996738523  1.0000
  C   C27       1.0  0.9368220187748066  0.3527353203991017  0.19235352354273605  1.0000
  C   C28       1.0  0.8958865006334739  0.3248706258332963  0.07671477751428091  1.0000
  C   C29       1.0  0.9370606488850615  0.35289649488017827  0.9570999548179993  1.0000
  C   C30       1.0  0.017391765010407845  0.4108526050218475  0.9520467193590467  1.0000
  C   C31       1.0  0.056958102975157576  0.43963272787554275  0.06869022651887668  1.0000
  C   C32       1.0  0.811377311200035  0.26241654606082787  0.08225834188634829  1.0000
  O   O3        1.0  0.7940575675884691  0.18337726405285482  0.178097816018985  1.0000
  C   C33       1.0  0.7465198521653934  0.28962151703571437  0.9791490585822653  1.0000
  C   C34       1.0  0.7400170924151077  0.4130697802333161  0.9112833738867376  1.0000
  C   C35       1.0  0.6780002697362197  0.4378744009091262  0.815401758661074  1.0000
  C   C36       1.0  0.6209931641161879  0.34077453528983703  0.7861747854109926  1.0000
  C   C37       1.0  0.6266048628938985  0.21752879388757362  0.8549560040789421  1.0000
  C   C38       1.0  0.6886140789211066  0.19259703979836162  0.950909993719999  1.0000
  O   O4        1.0  0.5600004360416382  0.3705492687081531  0.6890076018091307  1.0000
  C   C39       1.0  0.4982118830350666  0.28140114841564623  0.6494428378457338  1.0000
  H   H18       1.0  0.16918948825681057  0.5193348341447781  0.3908827000505426  1.0000
  H   H19       1.0  0.9054474191630315  0.3303076365809694  0.2847914022395195  1.0000
  H   H20       1.0  0.9067684496473966  0.32811860696951434  0.8679528122073363  1.0000
  H   H21       1.0  0.11892792139402064  0.4843374628188608  0.06552480724606724  1.0000
  H   H22       1.0  0.048350576436255954  0.43260149308039475  0.6226724266028372  1.0000
  H   H23       1.0  0.7822588699108172  0.49090275511803205  0.9332399493497654  1.0000
  H   H24       1.0  0.6739732687893072  0.5333822737497929  0.7638316530534386  1.0000
  H   H25       1.0  0.5833898641587417  0.14039144147457994  0.8350933033431591  1.0000
  H   H26       1.0  0.6918178278078658  0.09691555314677358  0.0023644076687550086  1.0000
  H   H27       1.0  0.4584176169748966  0.3305000671091911  0.5712420541274934  1.0000
  H   H28       1.0  0.4568333512292911  0.2496010896507721  0.7328655015731047  1.0000
  H   H29       1.0  0.5297885308175138  0.1957568174922999  0.6108773666935039  1.0000
  Zn  Zn1       1.0  0.9244815892867367  0.41166691004224054  0.5704008384718291  1.0000
  Zn  Zn2       1.0  0.11016152384358047  0.40979802460243775  0.5709577729867652  1.0000
  C   C40       1.0  0.017364308009781393  0.4056331949186116  0.8078732955441614  1.0000
  C   C41       1.0  0.017280832935740342  0.41583335811831845  0.3334854495604034  1.0000
  C   C42       1.0  0.017345539077575856  0.6479436575411133  0.565518703328904  1.0000
  C   C43       1.0  0.01729953835469833  0.17352133571867823  0.5758401107301971  1.0000
  O   O5        1.0  0.08775256811325383  0.416870506700765  0.38208255181732387  1.0000
  O   O6        1.0  0.08781934665082214  0.4031766256062368  0.7596985197944006  1.0000
  O   O7        1.0  0.08780324083881741  0.5988453985932252  0.5639954691135491  1.0000
  O   O8        1.0  0.08776861054937424  0.22120174361191203  0.5777855049344882  1.0000
  O   O9        1.0  0.9468744392174931  0.6002631916719365  0.5635731063272207  1.0000
  O   O10       1.0  0.9468905451792953  0.4045959791012579  0.7592760878566502  1.0000
  O   O11       1.0  0.9468237664224888  0.41828981444455393  0.3816585584838237  1.0000
  O   O12       1.0  0.9468398088710435  0.22262104209673694  0.5773616089677898  1.0000
