data_image0
_chemical_formula_structural       NC9NC3OH6C7OC3NC3H11C6NCOC6H11Zn2C4O8
_chemical_formula_sum              "N4 C42 O11 H28 Zn2"
_cell_length_a       15.78231758774541
_cell_length_b       10.298746005989749
_cell_length_c       10.299662537453274
_cell_angle_alpha    85.54306763902353
_cell_angle_beta     90.07028812251602
_cell_angle_gamma    89.64076015714048

_space_group_name_H-M_alt    "P 1"
_space_group_IT_number       1

loop_
  _space_group_symop_operation_xyz
  'x, y, z'

loop_
  _atom_site_type_symbol
  _atom_site_label
  _atom_site_symmetry_multiplicity
  _atom_site_fract_x
  _atom_site_fract_y
  _atom_site_fract_z
  _atom_site_occupancy
  N   N1        1.0  0.7982270896945559  0.4139176166543439  0.5699776076297078  1.0000
  C   C1        1.0  0.749683623122791  0.33183821647528644  0.5940527029849116  1.0000
  C   C2        1.0  0.6894151093359796  0.22995772952296978  0.6239360986715545  1.0000
  C   C3        1.0  0.7090598896439652  0.10197944927605107  0.6613950482851885  1.0000
  C   C4        1.0  0.6323206684643173  0.03995613748269866  0.6796236739897765  1.0000
  C   C5        1.0  0.5705531887363811  0.13467469670067578  0.6519410450667853  1.0000
  C   C6        1.0  0.4774597580618785  0.11716264906786034  0.6571509077975857  1.0000
  C   C7        1.0  0.4237296144608055  0.22453806867410786  0.6256041435782347  1.0000
  C   C8        1.0  0.33552111930434625  0.21017860682869438  0.6298832669302403  1.0000
  C   C9        1.0  0.2810949147731354  0.320678172995301  0.5974103866765192  1.0000
  N   N2        1.0  0.2373491393031946  0.4095055682829505  0.5713050929613785  1.0000
  C   C10       1.0  0.3003614579554744  0.08828391138272207  0.6657581393588732  1.0000
  C   C11       1.0  0.35316069935007743  0.9811304858394377  0.697244038697217  1.0000
  C   C12       1.0  0.4411834772474509  0.995095470701341  0.6930811978118905  1.0000
  O   O1        1.0  0.6070272377335074  0.246928537309824  0.6190360707635678  1.0000
  H   H1        1.0  0.771514298846874  0.05882060067969297  0.6739766993975669  1.0000
  H   H2        1.0  0.6235743305160324  0.9379735827960364  0.7094889530679485  1.0000
  H   H3        1.0  0.4503483036830823  0.3193937571677754  0.5976824100200189  1.0000
  H   H4        1.0  0.23224346556413303  0.07612219418892163  0.6693802118517922  1.0000
  H   H5        1.0  0.32581178474729183  0.8869232799047299  0.7249753083965378  1.0000
  H   H6        1.0  0.48025808518941215  0.9102224085402623  0.7180284974663889  1.0000
  C   C13       1.0  0.017751669941531434  0.030309891436917757  0.5706240620508689  1.0000
  C   C14       1.0  0.05740739367391612  0.03846465621209649  0.4482384022196806  1.0000
  C   C15       1.0  0.07656835538741236  0.9254739442651472  0.3856625921656056  1.0000
  C   C16       1.0  0.057408036478908686  0.8032280681528127  0.44818926655287017  1.0000
  C   C17       1.0  0.017832628686409446  0.7931032528265849  0.5706698618723032  1.0000
  C   C18       1.0  0.9980516316234314  0.9072097768310353  0.6309549917939767  1.0000
  C   C19       1.0  0.11916453816683448  0.9338863527840644  0.2569744930200235  1.0000
  O   O2        1.0  0.1709029891689473  0.8453982180403667  0.23191838138244947  1.0000
  C   C20       1.0  0.1030685075911526  0.04262417570163879  0.15671909580120702  1.0000
  C   C21       1.0  0.02283847104183745  0.10282701333893085  0.14436898615126337  1.0000
  C   C22       1.0  0.008005533643897778  0.20468386750606848  0.04841635037686376  1.0000
  N   N3        1.0  0.9264189923504961  0.26574218261769045  0.0369655255675867  1.0000
  C   C23       1.0  0.07345524647239388  0.24594543564802418  0.9634791616421441  1.0000
  C   C24       1.0  0.1529121400507225  0.18558631371649015  0.9739708435834014  1.0000
  C   C25       1.0  0.16767921697817223  0.08415471203514269  0.06961906922964567  1.0000
  H   H7        1.0  0.9439967663519095  0.22218444123697423  0.802739066587032  1.0000
  H   H8        1.0  0.07426440653953814  0.13282981033243701  0.4020670936401809  1.0000
  H   H9        1.0  0.07269678283868641  0.7159011683095677  0.40053711994602526  1.0000
  H   H10       1.0  0.9674884048596969  0.9001718061838786  0.7252940801162595  1.0000
  H   H11       1.0  0.9433736601250873  0.5666510873275646  0.8022942073373733  1.0000
  H   H12       1.0  0.9715165632321339  0.06991404114469679  0.20817710387903698  1.0000
  H   H13       1.0  0.8771784938168276  0.23575873112786017  0.09976846358155389  1.0000
  H   H14       1.0  0.9146753024752291  0.3415028528668276  0.9656909165474126  1.0000
  H   H15       1.0  0.06278848683306504  0.32443272380664  0.8889590324456029  1.0000
  H   H16       1.0  0.20319623710705081  0.21747500066012537  0.9078272553002158  1.0000
  H   H17       1.0  0.22982137662564806  0.038885910479367736  0.07633454433277032  1.0000
  C   C26       1.0  0.01785049752132295  0.4118465146423327  0.1892711715700064  1.0000
  C   C27       1.0  0.10434871437152782  0.44335475392095836  0.18572060486031838  1.0000
  C   C28       1.0  0.14817158381808548  0.45734075062763546  0.06724927851638718  1.0000
  C   C29       1.0  0.10420041650401246  0.4430461443011793  0.9505768414600411  1.0000
  C   C30       1.0  0.01773383838055631  0.4115665938985693  0.952022758443388  1.0000
  C   C31       1.0  0.9751193523409218  0.39569920659216873  0.0719399894697812  1.0000
  N   N4        1.0  0.2364083930537122  0.4915427611457177  0.06703453844259366  1.0000
  C   C32       1.0  0.29637231448675583  0.451086854590822  0.9730004253421991  1.0000
  O   O3        1.0  0.28090770203952053  0.35267564536893237  0.9113962703431242  1.0000
  C   C33       1.0  0.37773121658919884  0.5206040969300685  0.9509001388847791  1.0000
  C   C34       1.0  0.3879669982311549  0.6485823928034566  0.9872925459040482  1.0000
  C   C35       1.0  0.4648419163315227  0.7133711114543988  0.9653382635095427  1.0000
  C   C36       1.0  0.5320972414605889  0.6516631648095865  0.9065630964492146  1.0000
  C   C37       1.0  0.5225491635363138  0.5251244655157521  0.8691668868526365  1.0000
  C   C38       1.0  0.44581866610620513  0.4598772248163434  0.8907924990570888  1.0000
  H   H18       1.0  0.8544907795023837  0.35361964262186096  0.4031386216810837  1.0000
  H   H19       1.0  0.13829816422772856  0.4562339461646048  0.27524439937322676  1.0000
  H   H20       1.0  0.13702039200022642  0.4586816689517479  0.8585638093244219  1.0000
  H   H21       1.0  0.9084416530989737  0.37139292525989087  0.07381297112181362  1.0000
  H   H22       1.0  0.9842918732338859  0.40117464797745406  0.624997448832775  1.0000
  H   H23       1.0  0.25953785085368075  0.538518209754745  0.14602987009266677  1.0000
  H   H24       1.0  0.33648829581065587  0.6996391447023467  0.03091379726829535  1.0000
  H   H25       1.0  0.47214136810355245  0.811785700339722  0.9934820681103131  1.0000
  H   H26       1.0  0.5915146840246048  0.7020486464907736  0.8896282457394347  1.0000
  H   H27       1.0  0.5746545333910038  0.4774790185996114  0.823350753368151  1.0000
  H   H28       1.0  0.4399711520194298  0.36167068776216205  0.8612780595776584  1.0000
  Zn  Zn1       1.0  0.9249482224935296  0.4126409227752641  0.5703681846145545  1.0000
  Zn  Zn2       1.0  0.11062797526225698  0.4107716578855263  0.5709251318505815  1.0000
  C   C39       1.0  0.01775342820652881  0.4064454132108193  0.8078460658588709  1.0000
  C   C40       1.0  0.017824797320839192  0.41696878575116836  0.3334473842552883  1.0000
  C   C41       1.0  0.017813765854398422  0.6489209965644158  0.5654859379574733  1.0000
  C   C42       1.0  0.017764396137215144  0.17449164257345218  0.5758075811127972  1.0000
  O   O4        1.0  0.0882806699948786  0.41797282421599524  0.38204559653163517  1.0000
  O   O5        1.0  0.08822419150011518  0.4040216662770897  0.7596701897361566  1.0000
  O   O6        1.0  0.08827196481211663  0.5998237754245799  0.5639626689495183  1.0000
  O   O7        1.0  0.0882328333388378  0.22217072503311308  0.5777530197523582  1.0000
  O   O8        1.0  0.9473433010535631  0.6012418562669823  0.563540296515888  1.0000
  O   O9        1.0  0.9472955279139307  0.4054413075829162  0.7592477481495254  1.0000
  O   O10       1.0  0.9473520066991082  0.4193924208343982  0.3816215935135896  1.0000
  O   O11       1.0  0.9473041700237212  0.22359031232621307  0.5773291141033383  1.0000
