data_image0
_chemical_formula_structural       NC9NC3OH6C6SCOC6H10C6SCOC6H10Zn2C4O8
_chemical_formula_sum              "N2 C42 O11 H26 S2 Zn2"
_cell_length_a       15.78231758774541
_cell_length_b       10.302038109246572
_cell_length_c       10.302041481415108
_cell_angle_alpha    85.54819663174399
_cell_angle_beta     90.08006893222067
_cell_angle_gamma    89.64990665055792

_space_group_name_H-M_alt    "P 1"
_space_group_IT_number       1

loop_
  _space_group_symop_operation_xyz
  'x, y, z'

loop_
  _atom_site_type_symbol
  _atom_site_label
  _atom_site_symmetry_multiplicity
  _atom_site_fract_x
  _atom_site_fract_y
  _atom_site_fract_z
  _atom_site_occupancy
  N   N1        1.0  0.7982153390170496  0.41341713558275806  0.5703963127021974  1.0000
  C   C1        1.0  0.7496659952536254  0.33136511537601665  0.5944608287458442  1.0000
  C   C2        1.0  0.6893901864823635  0.22951861363463766  0.624331092853702  1.0000
  C   C3        1.0  0.7090257942797171  0.1015830220250662  0.6617735655848711  1.0000
  C   C4        1.0  0.6322821360364136  0.03958040094214432  0.679994188582292  1.0000
  C   C5        1.0  0.570521449608696  0.1342673668598422  0.6523237448228294  1.0000
  C   C6        1.0  0.47742677316610893  0.11676116296193073  0.6575313333283561  1.0000
  C   C7        1.0  0.4237043122619714  0.2241007628967846  0.625998420959434  1.0000
  C   C8        1.0  0.3354947964022014  0.20974609297806612  0.6302756778333232  1.0000
  C   C9        1.0  0.281076497182536  0.3202087970462275  0.5978170543776149  1.0000
  N   N2        1.0  0.2373370764199105  0.40900655992587254  0.5717232215886019  1.0000
  C   C10       1.0  0.30032642044452135  0.08789206250067383  0.6661348108435936  1.0000
  C   C11       1.0  0.3531179955106903  0.9807743826968531  0.6976068859549385  1.0000
  C   C12       1.0  0.4411417659295149  0.9947347072377087  0.6934458605688381  1.0000
  O   O1        1.0  0.6070035387069753  0.2464837625225822  0.6194332342230844  1.0000
  H   H1        1.0  0.771477104525784  0.058438568118772016  0.6743496719456128  1.0000
  H   H2        1.0  0.6235284904472642  0.9376318641496543  0.7098463341179713  1.0000
  H   H3        1.0  0.45032978246983507  0.3189248066997794  0.5980889365593154  1.0000
  H   H4        1.0  0.2322075633343738  0.07573440375924267  0.6697553030209475  1.0000
  H   H5        1.0  0.32576234632778117  0.8865986051253681  0.7253259901390974  1.0000
  H   H6        1.0  0.48021030251729674  0.9098899584548508  0.7183822085403857  1.0000
  C   C13       1.0  0.01770000138225325  0.029934197487838432  0.571019378331818  1.0000
  C   C14       1.0  0.9452684180437142  0.03545856845821227  0.4912983859958233  1.0000
  C   C15       1.0  0.9096280494658289  0.921244918393965  0.45114992165609746  1.0000
  C   C16       1.0  0.9455409514670332  0.8003232513191549  0.49124521520339437  1.0000
  C   C17       1.0  0.0178605250454682  0.792479451274696  0.571111417680291  1.0000
  C   C18       1.0  0.05361070246873734  0.9079415816935493  0.6104994903368912  1.0000
  S   S1        1.0  0.8176888778679818  0.9297385279977485  0.3482855347903713  1.0000
  C   C19       1.0  0.8799892507383694  0.9376575191906781  0.202083934919272  1.0000
  O   O2        1.0  0.9004215161916727  0.8322004700617383  0.15580579601465794  1.0000
  C   C20       1.0  0.9079363056938421  0.06356547701697868  0.13668519670300894  1.0000
  C   C21       1.0  0.9678468585146647  0.06533783553661876  0.03538196246178971  1.0000
  C   C22       1.0  0.9950811940562596  0.18342165320205117  0.9737547013971142  1.0000
  C   C23       1.0  0.9628633859463289  0.30096894706812205  0.012150171464436976  1.0000
  C   C24       1.0  0.9032077093911905  0.3006670761656811  0.11210142861757721  1.0000
  C   C25       1.0  0.8756909378660132  0.18288962307462375  0.17404793859533507  1.0000
  H   H7        1.0  0.15412691571842219  0.226826360418519  0.721452532672747  1.0000
  H   H8        1.0  0.9164425166977267  0.12828090758303134  0.45994234548230994  1.0000
  H   H9        1.0  0.9169880420642403  0.7128694827386224  0.4594015756999765  1.0000
  H   H10       1.0  0.10945071527639194  0.9027623639085305  0.6719557344063136  1.0000
  H   H11       1.0  0.04550419237174386  0.4621813416233436  0.6011549525842392  1.0000
  H   H12       1.0  0.9940588552149539  0.975520825483367  0.004170457543298811  1.0000
  H   H13       1.0  0.04130454507777781  0.18373759643730203  0.8962138150280987  1.0000
  H   H14       1.0  0.9840444068231369  0.39227711066502935  0.9643503892737328  1.0000
  H   H15       1.0  0.8781062606844756  0.39185642564837364  0.14155602150011437  1.0000
  H   H16       1.0  0.8289712886564864  0.1859667629429973  0.2504552357296388  1.0000
  C   C26       1.0  0.017796162204317012  0.4113358976855148  0.1897784178134665  1.0000
  C   C27       1.0  0.05666673712379389  0.534014495396381  0.17899767148190926  1.0000
  C   C28       1.0  0.07638431519335631  0.5945280539063262  0.05667922789538271  1.0000
  C   C29       1.0  0.05674706874509661  0.5336099224537794  0.9438924538249363  1.0000
  C   C30       1.0  0.017764360785984312  0.4110777200132769  0.9523523816009751  1.0000
  C   C31       1.0  0.998553208648338  0.3505205286977682  0.07586577735871147  1.0000
  S   S2        1.0  0.12679683043171153  0.7505172242487284  0.04432780981554285  1.0000
  C   C32       1.0  0.23115876001344882  0.6796849737075423  0.04720319573216303  1.0000
  O   O3        1.0  0.2643138018063671  0.6561847411696458  0.9402403339175218  1.0000
  C   C33       1.0  0.27785523389654454  0.6478807527893973  0.17086504577518524  1.0000
  C   C34       1.0  0.353005657749939  0.5734201749136698  0.1712755532695256  1.0000
  C   C35       1.0  0.39716149808318635  0.5420873018874834  0.2873573453728231  1.0000
  C   C36       1.0  0.36706623025238705  0.5847269910375645  0.40420906009919966  1.0000
  C   C37       1.0  0.2928264511300471  0.6590196494627947  0.40518155203373074  1.0000
  C   C38       1.0  0.248417781652696  0.6907291072397983  0.28939844683855176  1.0000
  H   H17       1.0  0.9444049713723263  0.180222555341905  0.41740623235434837  1.0000
  H   H18       1.0  0.07189830642122486  0.5827776016749082  0.2653639020297438  1.0000
  H   H19       1.0  0.07233770862081124  0.5820379710979604  0.849974029444382  1.0000
  H   H20       1.0  0.9685887329294489  0.25594383484817773  0.08325641554856111  1.0000
  H   H21       1.0  0.003174465243189095  0.36431882945814653  0.628243400316173  1.0000
  H   H22       1.0  0.37747380762719995  0.5387247430120112  0.08202670138786439  1.0000
  H   H23       1.0  0.45474619594831145  0.48453804819911817  0.28667749406393406  1.0000
  H   H24       1.0  0.40132443208237656  0.5603374674353889  0.49397176075849836  1.0000
  H   H25       1.0  0.2696737130602198  0.6923151626575599  0.4957882503006257  1.0000
  H   H26       1.0  0.19147629223486695  0.7492137324530626  0.2933076132884249  1.0000
  Zn  Zn1       1.0  0.9249363821921709  0.4121408680393146  0.5707867213818503  1.0000
  Zn  Zn2       1.0  0.11061600207880318  0.4102722269432828  0.5713434256681713  1.0000
  C   C39       1.0  0.017767370904197444  0.40595411635145306  0.8082089186495596  1.0000
  C   C40       1.0  0.017787041321934316  0.4164605964097814  0.3339213621163921  1.0000
  C   C41       1.0  0.017826013618303493  0.648343952892759  0.5659199252023783  1.0000
  C   C42       1.0  0.01772833491714132  0.17406920055364883  0.5762104244091337  1.0000
  O   O4        1.0  0.08824842714779635  0.4174656881739207  0.3825083166783929  1.0000
  O   O5        1.0  0.08823252004778581  0.4035297898714225  0.7600441158757241  1.0000
  O   O6        1.0  0.08827892483025224  0.5992626574188835  0.5643940367471865  1.0000
  O   O7        1.0  0.0882019590114711  0.22173283058505588  0.5781582982643416  1.0000
  O   O8        1.0  0.9473503618961617  0.6006802650366327  0.563971848588875  1.0000
  O   O9        1.0  0.9473039574410413  0.40494895744308956  0.7596218586750472  1.0000
  O   O10       1.0  0.9473198646530364  0.4188848110283643  0.3820844984072518  1.0000
  O   O11       1.0  0.947273396507229  0.22315194411999473  0.5777345773389844  1.0000
