data_image0
_chemical_formula_structural       NC9NC3OH6C7OC4NC3H9C7OC3OC4H12Zn2C4O8
_chemical_formula_sum              "N3 C44 O12 H27 Zn2"
_cell_length_a       15.78231758774541
_cell_length_b       10.299371701877257
_cell_length_c       10.299374482448636
_cell_angle_alpha    85.56746279880974
_cell_angle_beta     90.0656979821288
_cell_angle_gamma    89.64160960478583

_space_group_name_H-M_alt    "P 1"
_space_group_IT_number       1

loop_
  _space_group_symop_operation_xyz
  'x, y, z'

loop_
  _atom_site_type_symbol
  _atom_site_label
  _atom_site_symmetry_multiplicity
  _atom_site_fract_x
  _atom_site_fract_y
  _atom_site_fract_z
  _atom_site_occupancy
  N   N1        1.0  0.7983167937769209  0.41360042845318534  0.5703603792298375  1.0000
  C   C1        1.0  0.7497712353364224  0.3315312135898587  0.5944122479894065  1.0000
  C   C2        1.0  0.689500125013516  0.2296633691390506  0.6242668138310776  1.0000
  C   C3        1.0  0.7091416478517258  0.1017009588232971  0.6616895471661344  1.0000
  C   C4        1.0  0.6324008440335709  0.03968534862946105  0.6799006223094013  1.0000
  C   C5        1.0  0.570635773023807  0.13439216804607135  0.6522447982779234  1.0000
  C   C6        1.0  0.477541892162917  0.11688230373648922  0.6574497067510636  1.0000
  C   C7        1.0  0.42381448787019427  0.22424439176288224  0.6259333264357216  1.0000
  C   C8        1.0  0.3356056231931409  0.20988672119002993  0.630208387536725  1.0000
  C   C9        1.0  0.2811822381078244  0.32037256673609527  0.5977667750825344  1.0000
  N   N2        1.0  0.2374387291766905  0.40918893223524977  0.5716866166222743  1.0000
  C   C10       1.0  0.30044284883083267  0.08800716872237424  0.6660487686226468  1.0000
  C   C11       1.0  0.3532393563501909  0.9808670478046625  0.6975043469487818  1.0000
  C   C12       1.0  0.4412624936840737  0.9948302904255393  0.6933454566963242  1.0000
  O   O1        1.0  0.6071126818172307  0.24663208185629837  0.6193715896017324  1.0000
  H   H1        1.0  0.7715949612071288  0.058547455036874085  0.6742589839873094  1.0000
  H   H2        1.0  0.6236519094880831  0.9377154424016751  0.7097370418393001  1.0000
  H   H3        1.0  0.45043559981851383  0.3190882956750696  0.598038433177835  1.0000
  H   H4        1.0  0.2323245435869606  0.07584696834696958  0.6696674005640519  1.0000
  H   H5        1.0  0.3258880355619818  0.8866715459450671  0.7252089598491835  1.0000
  H   H6        1.0  0.48033493576818237  0.9099677676168103  0.7182687401138315  1.0000
  C   C13       1.0  0.01783751098800268  0.03002468849748352  0.5708963713824284  1.0000
  C   C14       1.0  0.021982621757217435  0.03935637777956358  0.43424202084402563  1.0000
  C   C15       1.0  0.023111203029286598  0.9269037910718783  0.3652520493644529  1.0000
  C   C16       1.0  0.02199303758817006  0.804087882047676  0.434559452763827  1.0000
  C   C17       1.0  0.01792609553820146  0.7927545935891828  0.5711618548089248  1.0000
  C   C18       1.0  0.01564893669536227  0.9063267943754791  0.6385234296345512  1.0000
  C   C19       1.0  0.02837801130946982  0.9366046999131986  0.22101588323688515  1.0000
  O   O2        1.0  0.06917033076647372  0.8504611157653307  0.16619241989142153  1.0000
  C   C20       1.0  0.9873542101892585  0.043949551948458954  0.13897861570322112  1.0000
  C   C21       1.0  0.023668065975248398  0.08825750461312665  0.019116283677750312  1.0000
  C   C22       1.0  0.9848783103224243  0.18856911215634287  0.9402072121494922  1.0000
  C   C23       1.0  0.02283641000968939  0.23404511658021043  0.8181636652613444  1.0000
  N   N3        1.0  0.053353029554891185  0.27059820748350427  0.7200583630426927  1.0000
  C   C24       1.0  0.9091423136304515  0.24449886053994407  0.9801508991086605  1.0000
  C   C25       1.0  0.8721135457843683  0.19998787605147772  0.09827149700251803  1.0000
  C   C26       1.0  0.9106600222118847  0.099976189667907  0.17716843601131393  1.0000
  H   H7        1.0  0.011318190891145052  0.21971657633225106  0.8288684198661822  1.0000
  H   H8        1.0  0.02528732823641433  0.13425946455733118  0.3813646124756418  1.0000
  H   H9        1.0  0.023491050124524238  0.7172478924845611  0.3815509497584557  1.0000
  H   H10       1.0  0.0124538227076878  0.898328847428298  0.7438741949840999  1.0000
  H   H11       1.0  0.017076915847332952  0.4609332721548917  0.623685319962656  1.0000
  H   H12       1.0  0.08243518491643553  0.04558346904414545  0.9877164230184357  1.0000
  H   H13       1.0  0.878609631910373  0.3220361254780195  0.9198183251932464  1.0000
  H   H14       1.0  0.8132019855352652  0.242679821685172  0.12851789857450657  1.0000
  H   H15       1.0  0.8800297570349178  0.06555261913212362  0.26723356466891324  1.0000
  C   C27       1.0  0.01796030520936842  0.41147635280543504  0.1896468467038641  1.0000
  C   C28       1.0  0.10646676699174717  0.425251568075361  0.18754787595454503  1.0000
  C   C29       1.0  0.15100011523452816  0.4336718704844509  0.06920161438479111  1.0000
  C   C30       1.0  0.10626422757954201  0.4251897318576301  0.9523083912933723  1.0000
  C   C31       1.0  0.017803287334389184  0.41130293667903217  0.952411339046173  1.0000
  C   C32       1.0  0.9741392445519146  0.4048678706056934  0.07158839418422258  1.0000
  C   C33       1.0  0.24455611094243124  0.44685802936584995  0.06695006769073686  1.0000
  O   O3        1.0  0.2861198768659945  0.3928983064886227  0.9812098478609057  1.0000
  C   C34       1.0  0.29095652511321757  0.5212734525981151  0.16188406549481082  1.0000
  C   C35       1.0  0.3736195184839899  0.4837250774709181  0.2002852354677387  1.0000
  C   C36       1.0  0.4188862278133578  0.5535345500643756  0.28864971953306884  1.0000
  O   O4        1.0  0.5008604489370712  0.5108187256678585  0.32417596544378524  1.0000
  C   C37       1.0  0.5539556034846269  0.5721561665017127  0.412750161899488  1.0000
  C   C38       1.0  0.38102154448085424  0.663301816654057  0.33848805400498816  1.0000
  C   C39       1.0  0.2993479895368858  0.7021734678420342  0.2995797816160588  1.0000
  C   C40       1.0  0.254570297673989  0.632126072743334  0.2114577259895256  1.0000
  H   H16       1.0  0.8510823359564434  0.38349184160301175  0.40108353454549417  1.0000
  H   H17       1.0  0.1409768527345372  0.4279968672742982  0.27824445749588667  1.0000
  H   H18       1.0  0.14057917418556864  0.4307005923023217  0.8610204518687157  1.0000
  H   H19       1.0  0.9059072288076208  0.3942473346372113  0.07240283154241256  1.0000
  H   H20       1.0  0.9839003170168338  0.4048839511040845  0.6250778166383748  1.0000
  H   H21       1.0  0.4029944871421316  0.3991176885093637  0.16246612577977992  1.0000
  H   H22       1.0  0.6149407966000657  0.5181861780339094  0.42287447939787515  1.0000
  H   H23       1.0  0.5233588119968708  0.5706626047766596  0.5098918332864888  1.0000
  H   H24       1.0  0.5669940818087655  0.6740311545077455  0.3751634694627959  1.0000
  H   H25       1.0  0.41423171950346815  0.7194060370868036  0.4067989299984991  1.0000
  H   H26       1.0  0.270768849258463  0.787261912626994  0.33743039591043167  1.0000
  H   H27       1.0  0.19191730735555157  0.6654823444551354  0.1810557141859681  1.0000
  Zn  Zn1       1.0  0.9250378931869236  0.41232389524840984  0.5707505952144261  1.0000
  Zn  Zn2       1.0  0.11071759785772173  0.4104548635271672  0.5713070136391127  1.0000
  C   C41       1.0  0.017830483895970417  0.4061620522337779  0.8082307468406946  1.0000
  C   C42       1.0  0.017927034929343888  0.41661832472709914  0.3338269961301952  1.0000
  C   C43       1.0  0.017906052982933574  0.6485836420077293  0.5659363103386186  1.0000
  C   C44       1.0  0.017851402287412776  0.17419517526834638  0.5761215011403544  1.0000
  O   O5        1.0  0.08838034870608458  0.4176290639219802  0.38242632729985826  1.0000
  O   O6        1.0  0.08830376959162711  0.4037317815687449  0.7600533501805786  1.0000
  O   O7        1.0  0.08836384241218265  0.5994902904051909  0.564398876055292  1.0000
  O   O8        1.0  0.08832021254674682  0.22187056503569225  0.5780807038604332  1.0000
  O   O9        1.0  0.9474352151345294  0.6009081943791086  0.5639769047963961  1.0000
  O   O10       1.0  0.9473751425055738  0.4051512458666875  0.7596313102168908  1.0000
  O   O11       1.0  0.9474517219925377  0.4190484833182422  0.3820027258652279  1.0000
  O   O12       1.0  0.9473915858086135  0.22328997512102022  0.5776571997938051  1.0000
