data_image0
_chemical_formula_structural       NC9NC3OH6C7OC3OC4H12C6SCOC6H10Zn2C4O8
_chemical_formula_sum              "N2 C43 O12 H28 S1 Zn2"
_cell_length_a       15.78231758774541
_cell_length_b       10.299371110280156
_cell_length_c       10.302041481415108
_cell_angle_alpha    85.5593769261431
_cell_angle_beta     90.08006893222067
_cell_angle_gamma    89.64456115777638

_space_group_name_H-M_alt    "P 1"
_space_group_IT_number       1

loop_
  _space_group_symop_operation_xyz
  'x, y, z'

loop_
  _atom_site_type_symbol
  _atom_site_label
  _atom_site_symmetry_multiplicity
  _atom_site_fract_x
  _atom_site_fract_y
  _atom_site_fract_z
  _atom_site_occupancy
  N   N1        1.0  0.7981295991180036  0.41376251373222916  0.57067269963195  1.0000
  C   C1        1.0  0.7495852327471355  0.3316904435528458  0.5947211707972846  1.0000
  C   C2        1.0  0.6893156021299073  0.22981905492180377  0.6245715193110735  1.0000
  C   C3        1.0  0.7089589706826902  0.10185220137492501  0.6619889748520011  1.0000
  C   C4        1.0  0.6322190736068005  0.03983442952724103  0.6801974735347764  1.0000
  C   C5        1.0  0.570452643332702  0.13454453285302947  0.6525455453565521  1.0000
  C   C6        1.0  0.47735902884140824  0.11703405119439525  0.6577497106080195  1.0000
  C   C7        1.0  0.42363005656406727  0.22439988029504754  0.626237787982125  1.0000
  C   C8        1.0  0.3354214114790449  0.21004170271450118  0.630512237869282  1.0000
  C   C9        1.0  0.2809964114342255  0.32053139910032735  0.5980752148646091  1.0000
  N   N2        1.0  0.2372516040726739  0.4093508603209992  0.5719987460514766  1.0000
  C   C10       1.0  0.3002604273606233  0.08815789637088178  0.6663475429093704  1.0000
  C   C11       1.0  0.3530585003380042  0.9810140416289665  0.697798671673103  1.0000
  C   C12       1.0  0.4410814239036339  0.9949777774706579  0.6936403761613905  1.0000
  O   O1        1.0  0.6069279252243945  0.2467883493599763  0.6196769781338078  1.0000
  H   H1        1.0  0.7714128981328571  0.05869720482606988  0.6745566445220799  1.0000
  H   H2        1.0  0.6234716123612762  0.9378609809121249  0.7100296835239228  1.0000
  H   H3        1.0  0.45024977461020993  0.3192470950020516  0.5983468459681665  1.0000
  H   H4        1.0  0.23214230775139244  0.07599726682233943  0.6699656577149717  1.0000
  H   H5        1.0  0.3257085639920616  0.8868152515617618  0.7254993602364483  1.0000
  H   H6        1.0  0.48015510729486977  0.9101122962928194  0.7185601331499709  1.0000
  C   C13       1.0  0.01763752410509767  0.03018586895710973  0.5712207770155642  1.0000
  C   C14       1.0  0.00788064547144729  0.03962009748978068  0.43523738070262175  1.0000
  C   C15       1.0  0.0020024338302091493  0.9272010977063858  0.366816378729921  1.0000
  C   C16       1.0  0.00792268986598299  0.8043516826673139  0.43554852232742425  1.0000
  C   C17       1.0  0.017751770315998172  0.7929174557489578  0.571461919051268  1.0000
  C   C18       1.0  0.02233047038186653  0.9064347499076058  0.6385485988975006  1.0000
  C   C19       1.0  0.9925834984769834  0.9370261320112176  0.22307386683130637  1.0000
  O   O2        1.0  0.027319488526606817  0.8516614066444044  0.15917049434998098  1.0000
  C   C20       1.0  0.9437489052632322  0.04361142165790377  0.15183186420328343  1.0000
  C   C21       1.0  0.9674381120387026  0.08857917698012852  0.024789990035968712  1.0000
  C   C22       1.0  0.9216105327134795  0.18807781108594157  0.9552867099343176  1.0000
  O   O3        1.0  0.9486680739854404  0.22965870791905707  0.8292994782831635  1.0000
  C   C23       1.0  0.9082825766684609  0.32957882527989857  0.7477612056784544  1.0000
  C   C24       1.0  0.8505303263105558  0.24262968522652262  0.013546748482885063  1.0000
  C   C25       1.0  0.8259712792969854  0.19738137607458528  0.13906928479949454  1.0000
  C   C26       1.0  0.8719492559845391  0.09816280223405616  0.20782101388850793  1.0000
  H   H7        1.0  0.037342787876252226  0.2197090352617872  0.8276144678962929  1.0000
  H   H8        1.0  0.005784860244903101  0.13459467318039975  0.38221349220465783  1.0000
  H   H9        1.0  0.004029192226191025  0.7175494254519479  0.38282640309851135  1.0000
  H   H10       1.0  0.029852854259405648  0.8983578442698518  0.7433818352869632  1.0000
  H   H11       1.0  0.02223245471040247  0.461070606779474  0.6235503744085067  1.0000
  H   H12       1.0  0.02222428149450395  0.04714906617339709  0.9795929886344896  1.0000
  H   H13       1.0  0.9428509879939642  0.3423564888755921  0.6540162267523182  1.0000
  H   H14       1.0  0.9095288893083715  0.4230060751885869  0.7947732496642792  1.0000
  H   H15       1.0  0.8418807509214125  0.3020197162634559  0.7278010022102257  1.0000
  H   H16       1.0  0.8137281984108703  0.31951696650516226  0.9625588134748297  1.0000
  H   H17       1.0  0.7708649263810643  0.23897654808386903  0.18304386722329768  1.0000
  H   H18       1.0  0.8508081278099587  0.06319224956843494  0.30411375595109824  1.0000
  C   C27       1.0  0.017710548556129968  0.41168076727026315  0.19005439776714828  1.0000
  C   C28       1.0  0.056573681616924665  0.5343893423360022  0.1792976406459339  1.0000
  C   C29       1.0  0.07628758884773212  0.5949176877480797  0.056991030195021386  1.0000
  C   C30       1.0  0.05665403778019851  0.5339846705332334  0.9441923438766651  1.0000
  C   C31       1.0  0.017678762799223202  0.41142252651054445  0.9526283110692537  1.0000
  C   C32       1.0  0.9984712841471595  0.3508505376309281  0.07612986515919018  1.0000
  S   S1        1.0  0.1266906415605662  0.750944975111731  0.04467011504795382  1.0000
  C   C33       1.0  0.23105686792763125  0.6800954162254007  0.04753165005831139  1.0000
  O   O4        1.0  0.2642133352781677  0.6565894412448656  0.9405641928861099  1.0000
  C   C34       1.0  0.27775527110012255  0.6482834237282298  0.1711872809387447  1.0000
  C   C35       1.0  0.35291021183835536  0.5738046509007446  0.17158322802484527  1.0000
  C   C36       1.0  0.3970679528683627  0.5424641214726151  0.2876588931353694  1.0000
  C   C37       1.0  0.36697009845321293  0.5851142299225351  0.40451894584808623  1.0000
  C   C38       1.0  0.29272581263226827  0.6594250422672561  0.4055059653550148  1.0000
  C   C39       1.0  0.24831521961398928  0.6911422484672634  0.28972906079194805  1.0000
  H   H19       1.0  0.9443333773890649  0.18051095079988144  0.4176370192043757  1.0000
  H   H20       1.0  0.07180229287478923  0.5831643642132482  0.2656734065849067  1.0000
  H   H21       1.0  0.07224173994142169  0.5824245529025065  0.8502833893683395  1.0000
  H   H22       1.0  0.9685125455853901  0.25625073331898207  0.0835020093309744  1.0000
  H   H23       1.0  0.003091703717409411  0.3646522101005232  0.6285101863080684  1.0000
  H   H24       1.0  0.3773804663899929  0.5391007409328712  0.08232759161817893  1.0000
  H   H25       1.0  0.4546561417532844  0.4849008052302861  0.28696778834643055  1.0000
  H   H26       1.0  0.4012297797864852  0.5607187465733634  0.49427687725323  1.0000
  H   H27       1.0  0.26957105480912946  0.6927286914485202  0.4961191743995388  1.0000
  H   H28       1.0  0.1913701824353926  0.7496411647989247  0.293649663629278  1.0000
  Zn  Zn1       1.0  0.9248507197133344  0.41248593432407743  0.5710628587436171  1.0000
  Zn  Zn2       1.0  0.11053045295440023  0.41061683661280646  0.5716191976261504  1.0000
  C   C40       1.0  0.017682083722540876  0.40629767086110347  0.8084838462217596  1.0000
  C   C41       1.0  0.017701116802214534  0.4168067182497326  0.33419834418028627  1.0000
  C   C42       1.0  0.017726022723502766  0.6487467370177067  0.5662422509424923  1.0000
  C   C43       1.0  0.017657114205156033  0.17435609239727357  0.5764400080001975  1.0000
  O   O5        1.0  0.08816244165777709  0.41781205561492274  0.3827854952831524  1.0000
  O   O6        1.0  0.08814737992923072  0.40387275198030737  0.7603185693825292  1.0000
  O   O7        1.0  0.0881819112768274  0.5996534481934059  0.564706764875794  1.0000
  O   O8        1.0  0.08812784695571807  0.22203136936285373  0.5783972022492465  1.0000
  O   O9        1.0  0.947253262348637  0.601071402213277  0.5642848539238403  1.0000
  O   O10       1.0  0.9472187312337577  0.40529226633528204  0.7598965896932519  1.0000
  O   O11       1.0  0.947233793077001  0.4192315252417469  0.38236195451466704  1.0000
  O   O12       1.0  0.9471991983660248  0.2234508296678961  0.5779737588247225  1.0000
