data_image0
_chemical_formula_structural       NC9NC3OH6C7OC3FC3H9C7OC6OCH12Zn2C4O8
_chemical_formula_sum              "N2 C43 O12 H27 F1 Zn2"
_cell_length_a       15.78231758774541
_cell_length_b       10.29937835083307
_cell_length_c       10.299362532796529
_cell_angle_alpha    85.57000454149363
_cell_angle_beta     90.0991944518132
_cell_angle_gamma    89.65202187042591

_space_group_name_H-M_alt    "P 1"
_space_group_IT_number       1

loop_
  _space_group_symop_operation_xyz
  'x, y, z'

loop_
  _atom_site_type_symbol
  _atom_site_label
  _atom_site_symmetry_multiplicity
  _atom_site_fract_x
  _atom_site_fract_y
  _atom_site_fract_z
  _atom_site_occupancy
  N   N1        1.0  0.7979411272216356  0.41287803504135967  0.5697100606693588  1.0000
  C   C1        1.0  0.749395018119875  0.33081883005250545  0.593802042153412  1.0000
  C   C2        1.0  0.6891232244253886  0.22896341047881874  0.6237063976224759  1.0000
  C   C3        1.0  0.7087638587177648  0.10101656479718768  0.6611916779195548  1.0000
  C   C4        1.0  0.6320226525536132  0.0390085382163845  0.6794330627962684  1.0000
  C   C5        1.0  0.570258254827531  0.13370386038262505  0.6517309452083635  1.0000
  C   C6        1.0  0.47716428429475777  0.11619617144584726  0.6569444089932766  1.0000
  C   C7        1.0  0.42343758065501386  0.22354513650521257  0.6253755557100413  1.0000
  C   C8        1.0  0.3352286451653009  0.20918925356463536  0.6296576316760496  1.0000
  C   C9        1.0  0.2808059779908602  0.31966158985730364  0.5971620198545802  1.0000
  N   N2        1.0  0.23706304567906814  0.40846709496223665  0.571038452921236  1.0000
  C   C10       1.0  0.3000650990652501  0.08732463232859056  0.6655575786124956  1.0000
  C   C11       1.0  0.3528609090329062  0.9801976096066453  0.6970655212463939  1.0000
  C   C12       1.0  0.44088411475166694  0.994159113015427  0.6928998088892435  1.0000
  O   O1        1.0  0.6067359245823033  0.24593009566611568  0.6188028765365359  1.0000
  H   H1        1.0  0.7712168531357703  0.057868282420061146  0.6737822098478512  1.0000
  H   H2        1.0  0.6232730157223537  0.9370510432833402  0.7093193237597328  1.0000
  H   H3        1.0  0.4500592913611828  0.31837741871413994  0.5974343098468331  1.0000
  H   H4        1.0  0.23194673304161623  0.07516594483509009  0.6691821518646621  1.0000
  H   H5        1.0  0.3255089937409418  0.8860136502277632  0.7248161698447602  1.0000
  H   H6        1.0  0.4799560074549851  0.90930696936888  0.7178645681971954  1.0000
  C   C13       1.0  0.017416832629755463  0.029288479644060894  0.5704380058175915  1.0000
  C   C14       1.0  0.9290091096338348  0.03017933167247855  0.5541458691152963  1.0000
  C   C15       1.0  0.8843113722611619  0.913342365707289  0.547405583813309  1.0000
  C   C16       1.0  0.9292162947221483  0.7949332496878204  0.5541533710757907  1.0000
  C   C17       1.0  0.017595408122095257  0.7920466236847334  0.5703217529786124  1.0000
  C   C18       1.0  0.06115822459490983  0.9097497490958876  0.5787123683803397  1.0000
  C   C19       1.0  0.7910633811748529  0.9142439550649174  0.5288293365521854  1.0000
  O   O2        1.0  0.7583239614653311  0.8298622606463734  0.46206966306154995  1.0000
  C   C20       1.0  0.7349563114788492  0.010772428666940614  0.5859982096798422  1.0000
  C   C21       1.0  0.659467592935814  0.05150957153788216  0.5219893536030402  1.0000
  C   C22       1.0  0.6056527939441015  0.1413233420641138  0.5758871600600388  1.0000
  F   F1        1.0  0.5333455851895258  0.18072092185813893  0.5129492826424156  1.0000
  C   C23       1.0  0.6262963487391526  0.19044857410955318  0.6945540308204563  1.0000
  C   C24       1.0  0.7005688529964853  0.14947166682983992  0.7597737640285986  1.0000
  C   C25       1.0  0.754558923820186  0.05972786590863244  0.7062811977125139  1.0000
  H   H7        1.0  0.18440019320462664  0.23507995418507877  0.5991875607499499  1.0000
  H   H8        1.0  0.8949150031793959  0.12203057488541647  0.5452296458087385  1.0000
  H   H9        1.0  0.8949133541128169  0.704807402586144  0.5479973260412496  1.0000
  H   H10       1.0  0.12931400895932543  0.9082589648315561  0.5912716529530957  1.0000
  H   H11       1.0  0.051626182744237026  0.4635647546861504  0.5754370881959425  1.0000
  H   H12       1.0  0.6425697655934373  0.014649618046496782  0.4297803711951842  1.0000
  H   H13       1.0  0.5846145554231424  0.25986792862560915  0.736306688389293  1.0000
  H   H14       1.0  0.7161567841578387  0.18683200573024528  0.8521923530107101  1.0000
  H   H15       1.0  0.8110365137899229  0.027614703944891072  0.7596039185088335  1.0000
  C   C26       1.0  0.017439973894868066  0.4105476642245731  0.18901281538821513  1.0000
  C   C27       1.0  0.9369951128611649  0.3526728002875148  0.19206610627256793  1.0000
  C   C28       1.0  0.8960560291931733  0.324809393559609  0.07643328068865629  1.0000
  C   C29       1.0  0.9372337635950768  0.3528339673195018  0.9568125033028991  1.0000
  C   C30       1.0  0.01757229570179275  0.41078739887178384  0.9517469538408192  1.0000
  C   C31       1.0  0.05714231633010236  0.43956619157872723  0.06838434605397703  1.0000
  C   C32       1.0  0.8115388482245723  0.2623582002616618  0.08199011475276818  1.0000
  O   O3        1.0  0.794208990858971  0.1833225712556148  0.17784638245494366  1.0000
  C   C33       1.0  0.7466848702992981  0.2895619138894565  0.978875051176392  1.0000
  C   C34       1.0  0.7401979068130773  0.41300447161084763  0.9109831372826762  1.0000
  C   C35       1.0  0.6781842580981483  0.4378079458778743  0.8150962517899809  1.0000
  C   C36       1.0  0.6211647277175064  0.3407125679764278  0.7858899094629548  1.0000
  C   C37       1.0  0.6267606561455528  0.21747252269031425  0.854697314299047  1.0000
  C   C38       1.0  0.6887666819409911  0.19254192088568  0.9506566012193223  1.0000
  O   O4        1.0  0.5601758095754689  0.3704859252795294  0.6887163995883401  1.0000
  C   C39       1.0  0.4983758493023019  0.28134192519468226  0.649170577031283  1.0000
  H   H16       1.0  0.16938390017984006  0.5192646142119239  0.3905598851850509  1.0000
  H   H17       1.0  0.9056176434348879  0.3302461530219689  0.2845087502058039  1.0000
  H   H18       1.0  0.9069383938141394  0.3280572245820981  0.8676706252793265  1.0000
  H   H19       1.0  0.11911785510322415  0.4842688603787464  0.06520942831336929  1.0000
  H   H20       1.0  0.04853389008440345  0.4325352817500212  0.6223680400726934  1.0000
  H   H21       1.0  0.7824496437054795  0.49083384924619633  0.9329231754816627  1.0000
  H   H22       1.0  0.6741694782027159  0.5333114045787035  0.7635058535118735  1.0000
  H   H23       1.0  0.5835357870245649  0.14033873537672137  0.8348510030275769  1.0000
  H   H24       1.0  0.6919581875608942  0.09686485639793463  0.0021313447264812435  1.0000
  H   H25       1.0  0.45858786586988953  0.3304385746565235  0.5709593612078372  1.0000
  H   H26       1.0  0.4569932484062655  0.24954333615059676  0.7325999973546735  1.0000
  H   H27       1.0  0.529941538158055  0.1957015525424366  0.6106233028311312  1.0000
  Zn  Zn1       1.0  0.9246622241754329  0.4116016662569941  0.5701008999372525  1.0000
  Zn  Zn2       1.0  0.11034191959235562  0.4097328671924969  0.5706582315364837  1.0000
  C   C40       1.0  0.017544170832877848  0.4055682299968928  0.807574639000159  1.0000
  C   C41       1.0  0.01746200095720285  0.41576792177005206  0.3331846257756865  1.0000
  C   C42       1.0  0.01755640760260846  0.6478674936236017  0.5651685627949072  1.0000
  C   C43       1.0  0.017449700474637675  0.17346709843829355  0.575590771266882  1.0000
  O   O5        1.0  0.08793386884677301  0.41680502241803263  0.3817815076684232  1.0000
  O   O6        1.0  0.08799889513480563  0.4031117742211312  0.7594003852005793  1.0000
  O   O7        1.0  0.08800782682051289  0.5987715038769252  0.5636557605445822  1.0000
  O   O8        1.0  0.08792487378644798  0.22114530265991705  0.5775260347586304  1.0000
  O   O9        1.0  0.9470792066179727  0.6001892314287145  0.5632330965180845  1.0000
  O   O10       1.0  0.9470702752817319  0.4045310621171123  0.7589776516911166  1.0000
  O   O11       1.0  0.9470052487686067  0.4182242645648959  0.38135721277293166  1.0000
  O   O12       1.0  0.9469962537195316  0.22256453554824396  0.5771018372319079  1.0000
