data_image0
_chemical_formula_structural       NC9NC3OH6C7OC4NC3H9C7OC6OCH12Zn2C4O8
_chemical_formula_sum              "N3 C44 O12 H27 Zn2"
_cell_length_a       15.78231758774541
_cell_length_b       10.299371701877257
_cell_length_c       10.299362532796529
_cell_angle_alpha    85.59861751689631
_cell_angle_beta     90.0991944518132
_cell_angle_gamma    89.64160960478583

_space_group_name_H-M_alt    "P 1"
_space_group_IT_number       1

loop_
  _space_group_symop_operation_xyz
  'x, y, z'

loop_
  _atom_site_type_symbol
  _atom_site_label
  _atom_site_symmetry_multiplicity
  _atom_site_fract_x
  _atom_site_fract_y
  _atom_site_fract_z
  _atom_site_occupancy
  N   N1        1.0  0.7977745861922536  0.4128260792133651  0.5704171608632289  1.0000
  C   C1        1.0  0.7492381497049226  0.3307698917913737  0.5944680743440169  1.0000
  C   C2        1.0  0.688978362076072  0.22891821775164578  0.6243214544386029  1.0000
  C   C3        1.0  0.7086340779245751  0.10097607706516731  0.6617427014382968  1.0000
  C   C4        1.0  0.6319001808701417  0.03897033070833511  0.6799530532841833  1.0000
  C   C5        1.0  0.5701246210649275  0.13366217063920294  0.652298327671383  1.0000
  C   C6        1.0  0.47703271422658877  0.11615512551346407  0.657503029418856  1.0000
  C   C7        1.0  0.42329335697719084  0.22350014302447363  0.6259879008536238  1.0000
  C   C8        1.0  0.33508611366717295  0.20914478799343006  0.6302627921601225  1.0000
  C   C9        1.0  0.2806504247200469  0.3196130618818711  0.5978224682038984  1.0000
  N   N2        1.0  0.2368970245831007  0.40841530133794146  0.5717433455809044  1.0000
  C   C10       1.0  0.2999369321895189  0.08728464809062353  0.6661017497576696  1.0000
  C   C11       1.0  0.35274536960568537  0.9801615647555382  0.6975560787485944  1.0000
  C   C12       1.0  0.4407669296316887  0.9941225547573226  0.6933973536766322  1.0000
  O   O1        1.0  0.6065890623086152  0.2458842790222593  0.6194264246350583  1.0000
  H   H1        1.0  0.7710921583862339  0.05782938138178384  0.6743116390335533  1.0000
  H   H2        1.0  0.6231625621365087  0.9370165850628713  0.7097882877877228  1.0000
  H   H3        1.0  0.44990388946025345  0.3183289379615908  0.5980941155096335  1.0000
  H   H4        1.0  0.2318199993542289  0.07512640770908896  0.6697202379762583  1.0000
  H   H5        1.0  0.3254045561166771  0.8859810688076615  0.7252595912925492  1.0000
  H   H6        1.0  0.47984882416318847  0.909273531382498  0.7183196472049946  1.0000
  C   C13       1.0  0.017295506684642747  0.029250629572165954  0.5709531317275809  1.0000
  C   C14       1.0  0.021388789689528842  0.038508301464884154  0.43430420875086617  1.0000
  C   C15       1.0  0.022491205706201667  0.9260183470659329  0.36531697737670976  1.0000
  C   C16       1.0  0.021399325910257838  0.8032399776666522  0.43462162806308235  1.0000
  C   C17       1.0  0.01738419192254259  0.7919806784601664  0.571218604609754  1.0000
  C   C18       1.0  0.01513258074658097  0.9055893649338357  0.6385775040057191  1.0000
  C   C19       1.0  0.027703310729618513  0.9356411319073495  0.22108653994117589  1.0000
  O   O2        1.0  0.06847483774549867  0.8494678532081071  0.16626525404361714  1.0000
  C   C20       1.0  0.9866483960140403  0.0429415493208849  0.13905253071819534  1.0000
  C   C21       1.0  0.02291679260556112  0.08718457981612016  0.01919495931833648  1.0000
  C   C22       1.0  0.9840971097623743  0.18745344709202372  0.9402890218568078  1.0000
  C   C23       1.0  0.022008923003866254  0.23286334791440666  0.8182503222265538  1.0000
  N   N3        1.0  0.05248833496319327  0.26936330111426  0.7201489164998738  1.0000
  C   C24       1.0  0.9083762621819078  0.2434048305528731  0.9802311223547759  1.0000
  C   C25       1.0  0.8713922929572065  0.19895782484189528  0.09834702880025104  1.0000
  C   C26       1.0  0.9099686919736858  0.0989888721541865  0.17724083422419  1.0000
  H   H7        1.0  0.010874025511166563  0.21908224524934594  0.8289149342206181  1.0000
  H   H8        1.0  0.024673441791763562  0.13338274775145464  0.38142890053805556  1.0000
  H   H9        1.0  0.02287723435047262  0.716371276606311  0.38161523042002843  1.0000
  H   H10       1.0  0.011977422271605365  0.8976484801188718  0.7439240850920108  1.0000
  H   H11       1.0  0.016554932371523057  0.46018780580745894  0.6237399836656325  1.0000
  H   H12       1.0  0.08167200278151898  0.04449353684340007  0.9877963457812693  1.0000
  H   H13       1.0  0.8778206986259426  0.32090941698787034  0.9199009446950637  1.0000
  H   H14       1.0  0.8124922040104533  0.24166615312036543  0.1285922290624406  1.0000
  H   H15       1.0  0.8793725850525218  0.06461408444653483  0.2673023857249712  1.0000
  C   C27       1.0  0.017273707554698703  0.41049579409141  0.18971874930614674  1.0000
  C   C28       1.0  0.936835668439927  0.3526230583893455  0.19274307567516624  1.0000
  C   C29       1.0  0.8958998691321726  0.3247606762837574  0.07709630534881318  1.0000
  C   C30       1.0  0.9370743001764996  0.35278421949472993  0.9574895533644328  1.0000
  C   C31       1.0  0.01740600110323598  0.41073551992284774  0.9524530077382609  1.0000
  C   C32       1.0  0.0569726294714612  0.43951325434594346  0.06910480281521791  1.0000
  C   C33       1.0  0.8113900495109494  0.26231177950637097  0.08262188459135356  1.0000
  O   O3        1.0  0.7940695083599725  0.18327905688109025  0.17843859749318036  1.0000
  C   C34       1.0  0.7465328649858425  0.28951449277077224  0.9795204356021556  1.0000
  C   C35       1.0  0.7400313508801606  0.41295251113339493  0.9116903007539987  1.0000
  C   C36       1.0  0.6780147784902691  0.43775507330113883  0.8158158286055746  1.0000
  C   C37       1.0  0.6210066930919843  0.34066326589242313  0.7865608931524366  1.0000
  C   C38       1.0  0.6266171482686205  0.21742775251807833  0.8553066202939563  1.0000
  C   C39       1.0  0.688626112724003  0.19249806748759402  0.9512534302466995  1.0000
  O   O4        1.0  0.560014265456947  0.37043552833850746  0.689402283889339  1.0000
  C   C40       1.0  0.4982248129085582  0.28129480635001425  0.6498118476160388  1.0000
  H   H16       1.0  0.1692048189806994  0.5192087462254333  0.39132022845361725  1.0000
  H   H17       1.0  0.9054608425234424  0.33019723581991545  0.2851744957899014  1.0000
  H   H18       1.0  0.9067818509195833  0.3280083878736093  0.8683352753748634  1.0000
  H   H19       1.0  0.11894289897979649  0.4842142792926971  0.06595225732825871  1.0000
  H   H20       1.0  0.04836503198446063  0.4324826030652027  0.6230849780888055  1.0000
  H   H21       1.0  0.782273913743138  0.4907790267455141  0.9336692900631669  1.0000
  H   H22       1.0  0.6739887412577367  0.5332550200489543  0.7642732267490189  1.0000
  H   H23       1.0  0.5834013711853178  0.14029680164874114  0.8354217060329776  1.0000
  H   H24       1.0  0.6918288961445463  0.09682452133687547  0.002680290448173084  1.0000
  H   H25       1.0  0.45843104227701204  0.3303896503785404  0.5716252030927982  1.0000
  H   H26       1.0  0.4568459602268906  0.24949738663688437  0.7332253537643059  1.0000
  H   H27       1.0  0.5298005965038887  0.19565758295507196  0.6112217131529323  1.0000
  Zn  Zn1       1.0  0.9244958335962427  0.4115497573649667  0.5708073613494355  1.0000
  Zn  Zn2       1.0  0.11017574929525065  0.409681027021902  0.5713637576746033  1.0000
  C   C41       1.0  0.017378491436578436  0.4055165429726897  0.8082780808707797  1.0000
  C   C42       1.0  0.01729511928644989  0.41571585967212177  0.3338931722652847  1.0000
  C   C43       1.0  0.01736216751827957  0.6478068965175998  0.5659932676847241  1.0000
  C   C44       1.0  0.017311379675762906  0.1734239464795173  0.5761780539567014  1.0000
  O   O5        1.0  0.0877668649292267  0.4167529221827533  0.38249057319367163  1.0000
  O   O6        1.0  0.08783350528980738  0.40306017752828827  0.7601025976937785  1.0000
  O   O7        1.0  0.08781937385755412  0.5987127121799782  0.5644558944643596  1.0000
  O   O8        1.0  0.08778093298569467  0.22110039742837717  0.5781371788622538  1.0000
  O   O9        1.0  0.946890586542355  0.6001303875976092  0.564033939965084  1.0000
  O   O10       1.0  0.9469047181401508  0.40447941323273096  0.7596805744924402  1.0000
  O   O11       1.0  0.9468380775598702  0.4181721121397608  0.38206698858340715  1.0000
  O   O12       1.0  0.9468521456286797  0.2225195781271887  0.5777136916161254  1.0000
