data_image0
_chemical_formula_structural       NC9NC3OH6C7OC3FC3H9C7OC3OC4H12Zn2C4O8
_chemical_formula_sum              "N2 C43 O12 H27 F1 Zn2"
_cell_length_a       15.78231758774541
_cell_length_b       10.29937835083307
_cell_length_c       10.299374482448636
_cell_angle_alpha    85.53885586126866
_cell_angle_beta     90.0656979821288
_cell_angle_gamma    89.65202187042591

_space_group_name_H-M_alt    "P 1"
_space_group_IT_number       1

loop_
  _space_group_symop_operation_xyz
  'x, y, z'

loop_
  _atom_site_type_symbol
  _atom_site_label
  _atom_site_symmetry_multiplicity
  _atom_site_fract_x
  _atom_site_fract_y
  _atom_site_fract_z
  _atom_site_occupancy
  N   N1        1.0  0.798483694463921  0.41365279599010774  0.5696528631922033  1.0000
  C   C1        1.0  0.7499284462921048  0.3315805408315511  0.5937458081176699  1.0000
  C   C2        1.0  0.6896453086573217  0.22970892263534926  0.623651359465724  1.0000
  C   C3        1.0  0.7092717232557757  0.10174177188792055  0.6611381388039446  1.0000
  C   C4        1.0  0.6325235973912081  0.03972386429469865  0.679380253155967  1.0000
  C   C5        1.0  0.5707697082068782  0.13443419217293817  0.6516770277568458  1.0000
  C   C6        1.0  0.4776737599949011  0.11692367920165014  0.6568907000288402  1.0000
  C   C7        1.0  0.4239590317072846  0.22428974451044592  0.6253205843031346  1.0000
  C   C8        1.0  0.3357484718517111  0.20993154205048525  0.6296028315099071  1.0000
  C   C9        1.0  0.28133813158666665  0.32042148060011777  0.597105920184775  1.0000
  N   N2        1.0  0.23760510900805512  0.40924113634608195  0.5709813085666564  1.0000
  C   C10       1.0  0.3005713074392666  0.088047474493675  0.6655042140898115  1.0000
  C   C11       1.0  0.3533551651606859  0.9809033845164431  0.6970134167303554  1.0000
  C   C12       1.0  0.4413799511038498  0.9948671444126469  0.6928475377858363  1.0000
  O   O1        1.0  0.6072598689195478  0.24667826396707104  0.6187476422873506  1.0000
  H   H1        1.0  0.7717199415720974  0.05858666945830482  0.6737291742292193  1.0000
  H   H2        1.0  0.6237626234836348  0.9377501805405893  0.7092677092748201  1.0000
  H   H3        1.0  0.4505913416663024  0.3191371619626262  0.5973782210659395  1.0000
  H   H4        1.0  0.2324515664673374  0.07588682363754806  0.6691289322891245  1.0000
  H   H5        1.0  0.32599272291718  0.8867043931372337  0.7247651750806998  1.0000
  H   H6        1.0  0.48044237365692805  0.910001477829194  0.7178132954376979  1.0000
  C   C13       1.0  0.017959123732790516  0.03006284627872069  0.5703808374510551  1.0000
  C   C14       1.0  0.9295575810080429  0.030962523448769375  0.5540880492241347  1.0000
  C   C15       1.0  0.8848624005001763  0.9141292085683647  0.5473474943772783  1.0000
  C   C16       1.0  0.9297647632505573  0.7957164374004417  0.5540955514846333  1.0000
  C   C17       1.0  0.018137743324567746  0.7928210532913524  0.5702645799631105  1.0000
  C   C18       1.0  0.06169737689513721  0.910519633665189  0.5786555309066181  1.0000
  C   C19       1.0  0.7916214561412275  0.9150408603270188  0.5287705042496569  1.0000
  O   O2        1.0  0.7589073610955697  0.8306953283581636  0.46200816103116105  1.0000
  C   C20       1.0  0.7354926999626549  0.01153836663411445  0.5859416635678438  1.0000
  C   C21       1.0  0.6600282625863738  0.05231018188909409  0.5219302477687209  1.0000
  C   C22       1.0  0.6061930179609404  0.14209475699521024  0.5758302096058758  1.0000
  F   F1        1.0  0.5339096841072827  0.18152642904443428  0.512889815294505  1.0000
  C   C23       1.0  0.626791557577566  0.19115570944610916  0.6945018258695954  1.0000
  C   C24       1.0  0.7010393213331192  0.15014347387316773  0.7597241672231896  1.0000
  C   C25       1.0  0.7550496840664463  0.06042864886117294  0.7062294617325531  1.0000
  H   H7        1.0  0.18493157843025299  0.23583874773078417  0.5991315420817838  1.0000
  H   H8        1.0  0.8954668568403404  0.12281859641086434  0.5451714693566694  1.0000
  H   H9        1.0  0.8954641578798975  0.7055939249116719  0.5479392602690665  1.0000
  H   H10       1.0  0.12984839701126405  0.9090220462744678  0.5912153177267663  1.0000
  H   H11       1.0  0.052166577491668864  0.46433641341264437  0.5753801197433484  1.0000
  H   H12       1.0  0.6431654138675079  0.015500176255641929  0.4297175779118938  1.0000
  H   H13       1.0  0.5850939257775868  0.26055244733898864  0.7362561531325347  1.0000
  H   H14       1.0  0.7165921943586491  0.18745375137573195  0.8521464520364657  1.0000
  H   H15       1.0  0.8115070465558817  0.02828660299031749  0.7595543149112802  1.0000
  C   C26       1.0  0.018126955111437804  0.41152864165490954  0.1889403937796501  1.0000
  C   C27       1.0  0.1066350433031229  0.42530436723459486  0.1868345284471591  1.0000
  C   C28       1.0  0.15116938571245142  0.4337249815780113  0.06848405246230183  1.0000
  C   C29       1.0  0.10643249659005205  0.42524252872611035  0.9515950747354083  1.0000
  C   C30       1.0  0.01796991676159898  0.4113552191042191  0.9517049729178368  1.0000
  C   C31       1.0  0.9743051142050563  0.40491991464062993  0.070885248847532  1.0000
  C   C32       1.0  0.24472693828107106  0.44691162894727987  0.0662259060115582  1.0000
  O   O3        1.0  0.28628433329908165  0.39294990710505284  0.980512693367459  1.0000
  C   C33       1.0  0.29113613851686604  0.5213298089362244  0.16112265842130147  1.0000
  C   C34       1.0  0.37379469863374415  0.48378004281063736  0.1995426215956566  1.0000
  C   C35       1.0  0.4190696502136806  0.5535921015310228  0.287872165574351  1.0000
  O   O4        1.0  0.5010388279741533  0.5108746947053653  0.323419791027838  1.0000
  C   C36       1.0  0.5541412244981601  0.5722144078154812  0.4119632877028787  1.0000
  C   C37       1.0  0.3812179268604152  0.6633634345041537  0.3376555608286833  1.0000
  C   C38       1.0  0.2995489614066289  0.7022365257119472  0.2987278329302121  1.0000
  C   C39       1.0  0.2547629992021785  0.6321865356723597  0.21064083647204712  1.0000
  H   H16       1.0  0.8512456817889537  0.3835430937522317  0.40039108804776546  1.0000
  H   H17       1.0  0.14114545317733884  0.4280497681345179  0.2775297359487283  1.0000
  H   H18       1.0  0.14074809385122555  0.4307535933233908  0.8603043770899226  1.0000
  H   H19       1.0  0.9060718445174885  0.3942989852290659  0.07170500185176665  1.0000
  H   H20       1.0  0.9840661885685644  0.4049359957347314  0.6243746632532923  1.0000
  H   H21       1.0  0.40315967788394635  0.39916951952592017  0.16176585844593316  1.0000
  H   H22       1.0  0.6151200454960111  0.5182424200023841  0.4221146175249917  1.0000
  H   H23       1.0  0.5235442566688628  0.5707207907606853  0.5091057066270568  1.0000
  H   H24       1.0  0.5671917309775993  0.6740931698315444  0.3743256061844087  1.0000
  H   H25       1.0  0.41443472598468123  0.7194697333458875  0.40593835630174735  1.0000
  H   H26       1.0  0.27097986733334656  0.7873281226410229  0.33653585991483914  1.0000
  H   H27       1.0  0.192113947185224  0.6655440430839783  0.18022212964158002  1.0000
  Zn  Zn1       1.0  0.9252046431564616  0.4123762154955193  0.5700437180898092  1.0000
  Zn  Zn2       1.0  0.11088412715480378  0.41050711453505895  0.5706010719768022  1.0000
  C   C40       1.0  0.01799650635028449  0.40621414421232194  0.8075269537578387  1.0000
  C   C41       1.0  0.01809429193270584  0.41667080406350254  0.33311796961621276  1.0000
  C   C42       1.0  0.01810069762005284  0.6486447146156635  0.5651111837026723  1.0000
  C   C43       1.0  0.017990036923820174  0.17423867391758074  0.5755338089600937  1.0000
  O   O5        1.0  0.08854772504519537  0.417681580701724  0.3817167949044571  1.0000
  O   O6        1.0  0.0884695051092399  0.4037837835166931  0.759350773463703  1.0000
  O   O7        1.0  0.08855269070548033  0.5995495443252901  0.5635983209551922  1.0000
  O   O8        1.0  0.08846447611134756  0.2219158298436541  0.577469149843276  1.0000
  O   O9        1.0  0.9476242308366245  0.6009675008261717  0.5631756400263062  1.0000
  O   O10       1.0  0.9475410456162077  0.4052033003994029  0.7589280230490736  1.0000
  O   O11       1.0  0.9476192659193681  0.41910105268108966  0.381292483041358  1.0000
  O   O12       1.0  0.9475360169598345  0.22333529251174045  0.5770449353528402  1.0000
