data_image0
_chemical_formula_structural       NC9NC3OH6C7OC6OCH12C7OC3OC4H12Zn2C4O8
_chemical_formula_sum              "N2 C44 O13 H30 Zn2"
_cell_length_a       15.78231758774541
_cell_length_b       10.299359160628079
_cell_length_c       10.299374482448636
_cell_angle_alpha    85.55316158380268
_cell_angle_beta     90.0656979821288
_cell_angle_gamma    89.65438836023732

_space_group_name_H-M_alt    "P 1"
_space_group_IT_number       1

loop_
  _space_group_symop_operation_xyz
  'x, y, z'

loop_
  _atom_site_type_symbol
  _atom_site_label
  _atom_site_symmetry_multiplicity
  _atom_site_fract_x
  _atom_site_fract_y
  _atom_site_fract_z
  _atom_site_occupancy
  N   N1        1.0  0.7985221719253771  0.41362757219754065  0.5700069885107308  1.0000
  C   C1        1.0  0.7499646898726227  0.33155678145340395  0.5940793740289776  1.0000
  C   C2        1.0  0.6896787794485987  0.22968698095145723  0.6239594061552365  1.0000
  C   C3        1.0  0.7093017109774303  0.10172211352060767  0.6614141292430475  1.0000
  C   C4        1.0  0.6325518970805144  0.039705312512284596  0.6796407078770048  1.0000
  C   C5        1.0  0.5708005857660833  0.13441395047509985  0.6519612077696402  1.0000
  C   C6        1.0  0.4777041609447932  0.11690374994371777  0.6571704935925713  1.0000
  C   C7        1.0  0.42399235499684285  0.224267899520894  0.6256272734682358  1.0000
  C   C8        1.0  0.33578140433301473  0.20990995325419526  0.6299059238915303  1.0000
  C   C9        1.0  0.2813740714346757  0.32039792033296943  0.597436690709712  1.0000
  N   N2        1.0  0.23764346639090042  0.4092159912707132  0.5713343287479244  1.0000
  C   C10       1.0  0.3006009224231445  0.08802806047357192  0.665776774056142  1.0000
  C   C11       1.0  0.35338186384672593  0.9808858822672559  0.6972591367009675  1.0000
  C   C12       1.0  0.4414070298620227  0.9948493930082328  0.6930967557305872  1.0000
  O   O1        1.0  0.6072938015902757  0.2466560194993932  0.6190599398604044  1.0000
  H   H1        1.0  0.7717487546780368  0.05856778110704863  0.6739943541535787  1.0000
  H   H2        1.0  0.6237881476056324  0.937733448273585  0.7095026192062581  1.0000
  H   H3        1.0  0.45062724655712744  0.3191136246115627  0.5977086698642493  1.0000
  H   H4        1.0  0.23248085045694583  0.07586762659981505  0.6693984459668827  1.0000
  H   H5        1.0  0.3260168576511164  0.8866885716796985  0.7249872978512624  1.0000
  H   H6        1.0  0.48046714250178707  0.909985240682012  0.7180412542152073  1.0000
  C   C13       1.0  0.017987160464000285  0.030044466877753306  0.5706388720509066  1.0000
  C   C14       1.0  0.9479216688598278  0.03604878131666811  0.4860275926596518  1.0000
  C   C15       1.0  0.9131901841432197  0.9220867400449269  0.44226064467244797  1.0000
  C   C16       1.0  0.9481234453912558  0.8007851822281824  0.48628331650297674  1.0000
  C   C17       1.0  0.018186567174180546  0.7927889937212548  0.5707137234441582  1.0000
  C   C18       1.0  0.05283199337455802  0.9080079870271291  0.6121948186648074  1.0000
  C   C19       1.0  0.8386192071032288  0.930568839371814  0.35409910477675655  1.0000
  O   O2        1.0  0.7847714989404501  0.019979823966524757  0.365503219425678  1.0000
  C   C20       1.0  0.8251332069923455  0.8376897333118558  0.2530078069233854  1.0000
  C   C21       1.0  0.8940647738358042  0.7836631774758116  0.1891590712172615  1.0000
  C   C22       1.0  0.880465674243196  0.6974353510968191  0.09303327240183124  1.0000
  C   C23       1.0  0.7981587361308001  0.6643559389543607  0.05802073811074804  1.0000
  C   C24       1.0  0.7289422379278501  0.7194204360622796  0.12055681419996289  1.0000
  C   C25       1.0  0.7424638481606567  0.8057079195567646  0.21672880167375874  1.0000
  O   O3        1.0  0.7879162873698069  0.577254189045729  0.9610885673812235  1.0000
  C   C26       1.0  0.7080769876963402  0.5352222022203407  0.9159778108119987  1.0000
  H   H7        1.0  0.14997912992149365  0.22595435130409447  0.7307179191068855  1.0000
  H   H8        1.0  0.9206784361598842  0.1296581474177334  0.45295946948800214  1.0000
  H   H9        1.0  0.9200013781593374  0.7124375734968461  0.4557459378089004  1.0000
  H   H10       1.0  0.1068782213058892  0.9025718956960107  0.6773288639224813  1.0000
  H   H11       1.0  0.04484650936895118  0.4622181988696958  0.6035134099663435  1.0000
  H   H12       1.0  0.9584784676552307  0.8090987119784671  0.21248558843973853  1.0000
  H   H13       1.0  0.934249667345467  0.6564584655216144  0.04501313489433034  1.0000
  H   H14       1.0  0.6644934741845269  0.6962626245046085  0.09558552593597658  1.0000
  H   H15       1.0  0.6882065202615514  0.8466440095808938  0.26369671565499386  1.0000
  H   H16       1.0  0.7186697493154363  0.46673803723899204  0.8395327164182831  1.0000
  H   H17       1.0  0.6708540312875331  0.6199542325713131  0.8733539936244541  1.0000
  H   H18       1.0  0.672491810901945  0.48399147672694837  0.997408420257313  1.0000
  C   C27       1.0  0.018165374756670127  0.4115034557636066  0.18929398698956335  1.0000
  C   C28       1.0  0.1066738379024823  0.4252789355431592  0.18719157252791052  1.0000
  C   C29       1.0  0.15120840950802084  0.4336993996376388  0.06884320593847537  1.0000
  C   C30       1.0  0.10647128950626183  0.4252170981380585  0.9519521033253815  1.0000
  C   C31       1.0  0.018008331686535595  0.4113300363072927  0.952058522684752  1.0000
  C   C32       1.0  0.9743433539708729  0.40489484666877607  0.07123718654658306  1.0000
  C   C33       1.0  0.24476632099696238  0.4468858117176915  0.06658836279227254  1.0000
  O   O4        1.0  0.28632224725964783  0.39292505271392253  0.9808616325348032  1.0000
  C   C34       1.0  0.2911775467815061  0.5213026638638021  0.1615037572347462  1.0000
  C   C35       1.0  0.37383508485132766  0.4837535677383129  0.19991431405209004  1.0000
  C   C36       1.0  0.41911193660845525  0.5535643808028392  0.28826134621289046  1.0000
  O   O5        1.0  0.5010799516666156  0.5108477361834403  0.3237982707960212  1.0000
  C   C37       1.0  0.5541840177635566  0.5721863548096746  0.41235713329887  1.0000
  C   C38       1.0  0.3812632010625534  0.6633337551271836  0.3380722395971485  1.0000
  C   C39       1.0  0.2995952936747026  0.7022061527228032  0.2991542495535773  1.0000
  C   C40       1.0  0.2548074248169361  0.6321574125844811  0.2110497053106195  1.0000
  H   H19       1.0  0.8512833397104843  0.38351840720677766  0.4007376707731427  1.0000
  H   H20       1.0  0.14118432250230128  0.428024287456922  0.2778874677626846  1.0000
  H   H21       1.0  0.1407870367701638  0.43072806440146905  0.8606627862222127  1.0000
  H   H22       1.0  0.9061097951978921  0.3942741067663482  0.07205427896823213  1.0000
  H   H23       1.0  0.9841044287720836  0.4049109274759424  0.6247266049807174  1.0000
  H   H24       1.0  0.40319776113282524  0.3991445541583085  0.16211635564947668  1.0000
  H   H25       1.0  0.6151613697266585  0.5182153300182113  0.42249494293594836  1.0000
  H   H26       1.0  0.5235870092802937  0.5706927644054727  0.5094991780663831  1.0000
  H   H27       1.0  0.5672372972266806  0.6740632990040158  0.3747449727917491  1.0000
  H   H28       1.0  0.41448152731424237  0.719439052864794  0.4063690899081511  1.0000
  H   H29       1.0  0.27102851566421204  0.7872962313633745  0.33698359230184316  1.0000
  H   H30       1.0  0.19215928074018418  0.6655143247984319  0.18063935466065906  1.0000
  Zn  Zn1       1.0  0.9252430858713542  0.41235101448096456  0.5703975236201428  1.0000
  Zn  Zn2       1.0  0.11092251899563399  0.4104819468708538  0.5709544092903469  1.0000
  C   C41       1.0  0.01803478134304548  0.4061890531475434  0.8078792156662433  1.0000
  C   C42       1.0  0.018132851539713668  0.41664552642064767  0.333472850957063  1.0000
  C   C43       1.0  0.018145571201204858  0.6486152978646644  0.5655241753766942  1.0000
  C   C44       1.0  0.0180219978999836  0.17421772198877683  0.575827960144605  1.0000
  O   O6        1.0  0.08858631216399382  0.4176562850235914  0.3820719294486399  1.0000
  O   O7        1.0  0.08850771395130952  0.40375873581681576  0.7597024265576535  1.0000
  O   O8        1.0  0.0885962279913779  0.5995210035789189  0.5639990141052298  1.0000
  O   O9        1.0  0.08849773478658896  0.22189402721183815  0.5777752443338642  1.0000
  O   O10       1.0  0.9476678067171236  0.6009389347792164  0.5635766883797568  1.0000
  O   O11       1.0  0.9475792930953503  0.4051782273711002  0.7592800317373183  1.0000
  O   O12       1.0  0.9476578916740174  0.41907573167533285  0.3816479731685867  1.0000
  O   O13       1.0  0.9475693142706728  0.22331346455246637  0.5773513854241417  1.0000
