data_image0
_chemical_formula_structural       NC9NC3OH6C6SCOC6H10C7OC3OC4H12Zn2C4O8
_chemical_formula_sum              "N2 C43 O12 H28 S1 Zn2"
_cell_length_a       15.78231758774541
_cell_length_b       10.302038109246572
_cell_length_c       10.299374482448636
_cell_angle_alpha    85.55445882342696
_cell_angle_beta     90.0656979821288
_cell_angle_gamma    89.64990665055792

_space_group_name_H-M_alt    "P 1"
_space_group_IT_number       1

loop_
  _space_group_symop_operation_xyz
  'x, y, z'

loop_
  _atom_site_type_symbol
  _atom_site_label
  _atom_site_symmetry_multiplicity
  _atom_site_fract_x
  _atom_site_fract_y
  _atom_site_fract_z
  _atom_site_occupancy
  N   N1        1.0  0.7984500445020676  0.41325816830797435  0.5700389113074877  1.0000
  C   C1        1.0  0.7498967499416779  0.331208823997055  0.5941094434881058  1.0000
  C   C2        1.0  0.6896160372135449  0.22936564373177792  0.6239871751718713  1.0000
  C   C3        1.0  0.7092454978850896  0.10143421560324972  0.6614390085336082  1.0000
  C   C4        1.0  0.6324988482671866  0.03943362059427247  0.6796641866928057  1.0000
  C   C5        1.0  0.570742704640373  0.1341175096487286  0.6519868253132504  1.0000
  C   C6        1.0  0.4776471732408516  0.11661188481770135  0.657195715717626  1.0000
  C   C7        1.0  0.4239298892592118  0.22394797839538128  0.6256549201101813  1.0000
  C   C8        1.0  0.3357196711798979  0.20959378409369855  0.6299332462997034  1.0000
  C   C9        1.0  0.2813067008615421  0.3200528788686272  0.5974665081773947  1.0000
  N   N2        1.0  0.2375715640593841  0.40884774019903625  0.5713661519215532  1.0000
  C   C10       1.0  0.30054540804153956  0.08774374103512805  0.6658013441050883  1.0000
  C   C11       1.0  0.3533318161731804  0.9806295608235768  0.6972812872456213  1.0000
  C   C12       1.0  0.4413562697292198  0.9945894226719593  0.6931192216017978  1.0000
  O   O1        1.0  0.6072301935451243  0.24633024799379166  0.6190880920749757  1.0000
  H   H1        1.0  0.7716947434462587  0.058291160119031016  0.6740182589251  1.0000
  H   H2        1.0  0.6237403016957864  0.9374884032631585  0.7095237952747433  1.0000
  H   H3        1.0  0.4505599415125267  0.31876891875459257  0.5977384583297305  1.0000
  H   H4        1.0  0.23242595653632991  0.0755864848806378  0.6694227414066838  1.0000
  H   H5        1.0  0.3259716162005315  0.8864568655262149  0.7250073212149948  1.0000
  H   H6        1.0  0.4804207123868466  0.909747446729795  0.7180618036685869  1.0000
  C   C13       1.0  0.017934604575340796  0.029775299495923946  0.570662132703722  1.0000
  C   C14       1.0  0.9455161094474288  0.03529080575154664  0.4909212100932734  1.0000
  C   C15       1.0  0.9098823322520917  0.9210726913088011  0.4507627086241821  1.0000
  C   C16       1.0  0.945788651600074  0.8001554827000701  0.49086802600812907  1.0000
  C   C17       1.0  0.018095113127976514  0.7923205635172571  0.5707541950620629  1.0000
  C   C18       1.0  0.053838824006161135  0.9077870737615298  0.6101521147498561  1.0000
  S   S1        1.0  0.8179600484365195  0.9295548627277238  0.34787260562771416  1.0000
  C   C19       1.0  0.8802844239852113  0.9374575967788269  0.2016344553082865  1.0000
  O   O2        1.0  0.9007242871616693  0.8319954016715371  0.1553447468536382  1.0000
  C   C20       1.0  0.9082422157922387  0.06335828247839648  0.13621936738583718  1.0000
  C   C21       1.0  0.9681694000927766  0.06511937640826515  0.03489080730254801  1.0000
  C   C22       1.0  0.9954138533028742  0.18319634132294493  0.9732481394022212  1.0000
  C   C23       1.0  0.9631897416085972  0.30074790464025924  0.011653208349761579  1.0000
  C   C24       1.0  0.9035176555348653  0.30045714799214074  0.11162945335025176  1.0000
  C   C25       1.0  0.8759907139284276  0.1826865831512754  0.17359144997599474  1.0000
  H   H7        1.0  0.1543368215168639  0.22668419010350882  0.7211328953829967  1.0000
  H   H8        1.0  0.9166953559859651  0.128109658186766  0.45955733055925996  1.0000
  H   H9        1.0  0.9172409701334711  0.712698173210518  0.45901642558430145  1.0000
  H   H10       1.0  0.1096687472220641  0.9026146897107306  0.6716237229006241  1.0000
  H   H11       1.0  0.04573384805061198  0.46202579460915477  0.6008052408596749  1.0000
  H   H12       1.0  0.9943865209484279  0.9752988957373006  0.003671499497503561  1.0000
  H   H13       1.0  0.04164993461566513  0.18350366226412884  0.8956878677859641  1.0000
  H   H14       1.0  0.9843786100246658  0.39205075305703807  0.9638414761976981  1.0000
  H   H15       1.0  0.87841137111419  0.3916497727296482  0.14109140989075297  1.0000
  H   H16       1.0  0.8292585205348785  0.1857722192622837  0.2500178489598561  1.0000
  C   C26       1.0  0.018093355712008652  0.41113460694023196  0.18932586181913447  1.0000
  C   C27       1.0  0.10660111599245425  0.42490648696274014  0.18722375843788863  1.0000
  C   C28       1.0  0.1511352579612275  0.43332475065291987  0.06887558200091592  1.0000
  C   C29       1.0  0.10639857075135972  0.42484466571675994  0.9519842878389362  1.0000
  C   C30       1.0  0.017936321490243268  0.4109612328012444  0.9520903935981324  1.0000
  C   C31       1.0  0.974271672116823  0.40452772478250476  0.07126891213933306  1.0000
  C   C32       1.0  0.2446924966407633  0.4465077169089047  0.06662103663268604  1.0000
  O   O3        1.0  0.28625117613957984  0.39256105872960423  0.9808930878234734  1.0000
  C   C33       1.0  0.29109992545933006  0.5209051227205117  0.16153811157014508  1.0000
  C   C34       1.0  0.3737593793941254  0.48336583878490247  0.19994782044692272  1.0000
  C   C35       1.0  0.41903266919889326  0.5531584091478947  0.28829642908829034  1.0000
  O   O4        1.0  0.5010028637855022  0.510452927082893  0.3238323890363284  1.0000
  C   C36       1.0  0.5541038002062841  0.5717755169298739  0.412392636699098  1.0000
  C   C37       1.0  0.3811783328976841  0.6628990989483745  0.3381098013046653  1.0000
  C   C38       1.0  0.2995084421261396  0.7017613385539054  0.2991926890846961  1.0000
  C   C39       1.0  0.2547241473604678  0.6317309032913334  0.21108656298825856  1.0000
  H   H17       1.0  0.8512127485450489  0.3831568713320115  0.4007689136392212  1.0000
  H   H18       1.0  0.1411114605163697  0.4276511214713705  0.277919715668703  1.0000
  H   H19       1.0  0.14071403682960537  0.430354191875002  0.8606950951854162  1.0000
  H   H20       1.0  0.9060386552451309  0.3939097602522521  0.07208576472148809  1.0000
  H   H21       1.0  0.9840327460975439  0.4045438013874947  0.6247583309366069  1.0000
  H   H22       1.0  0.40312637267555873  0.3987789349170483  0.16214795138806792  1.0000
  H   H23       1.0  0.615083905929307  0.5178185956454973  0.42252922755260935  1.0000
  H   H24       1.0  0.5235068679303825  0.5702823168251512  0.5095346477380791  1.0000
  H   H25       1.0  0.5671518816090249  0.6736258390207825  0.37478277679579053  1.0000
  H   H26       1.0  0.41439379649258923  0.7189897354586454  0.4064079185957772  1.0000
  H   H27       1.0  0.27093732257036285  0.7868291817721969  0.3370239533527033  1.0000
  H   H28       1.0  0.1920743013162569  0.6650790988012816  0.18067696561019986  1.0000
  Zn  Zn1       1.0  0.9251710235817621  0.41198194417670453  0.5704294175894402  1.0000
  Zn  Zn2       1.0  0.11085055207135142  0.41011336498437667  0.5709862610520169  1.0000
  C   C40       1.0  0.01796303345478667  0.4058215930640574  0.8079109704850009  1.0000
  C   C41       1.0  0.018060570131531506  0.41627533389053006  0.3335048419058151  1.0000
  C   C42       1.0  0.018061454015177558  0.6481844878582621  0.5655614047093134  1.0000
  C   C43       1.0  0.017962085869150934  0.17391087978915398  0.5758544765442741  1.0000
  O   O5        1.0  0.08851397918394399  0.41728582836580186  0.3821039432225284  1.0000
  O   O6        1.0  0.08843609006496633  0.4033919108147985  0.7597341264945401  1.0000
  O   O7        1.0  0.08851461574018349  0.5991030227105592  0.5640351347815029  1.0000
  O   O8        1.0  0.08843539017088253  0.22157472641779097  0.5778028373685904  1.0000
  O   O9        1.0  0.9475861221189221  0.6005205833823595  0.5636128410760122  1.0000
  O   O10       1.0  0.9475075967823863  0.4048110314328395  0.7593117637294229  1.0000
  O   O11       1.0  0.9475854862696378  0.41870490409303396  0.3816800189966787  1.0000
  O   O12       1.0  0.9475068972311121  0.22299379283634235  0.5773790105128618  1.0000
