data_image0
_chemical_formula_structural       NC9NC3OH6C7OC3OC4H12C7OC3FC3H9Zn2C4O8
_chemical_formula_sum              "N2 C43 O12 H27 F1 Zn2"
_cell_length_a       15.78231758774541
_cell_length_b       10.299371110280156
_cell_length_c       10.29938172300155
_cell_angle_alpha    85.59389208423815
_cell_angle_beta     90.06753164669173
_cell_angle_gamma    89.64456115777638

_space_group_name_H-M_alt    "P 1"
_space_group_IT_number       1

loop_
  _space_group_symop_operation_xyz
  'x, y, z'

loop_
  _atom_site_type_symbol
  _atom_site_label
  _atom_site_symmetry_multiplicity
  _atom_site_fract_x
  _atom_site_fract_y
  _atom_site_fract_z
  _atom_site_occupancy
  N   N1        1.0  0.7983373131844891  0.4128966883557843  0.570370770991733  1.0000
  C   C1        1.0  0.7497894520187359  0.3308391857121882  0.5944243221147487  1.0000
  C   C2        1.0  0.6895154834606636  0.22898587914620694  0.6242809761648094  1.0000
  C   C3        1.0  0.7091534143982509  0.1010416914943415  0.6617063357046804  1.0000
  C   C4        1.0  0.6324108712095324  0.039034949576766786  0.6799186807193953  1.0000
  C   C5        1.0  0.570648459395339  0.133728302546553  0.6522609113954292  1.0000
  C   C6        1.0  0.47755408861937443  0.1162209733487567  0.6574661759658122  1.0000
  C   C7        1.0  0.4238296957477368  0.22356771387378083  0.6259475968155885  1.0000
  C   C8        1.0  0.3356204294870272  0.2092121255722479  0.630222949630187  1.0000
  C   C9        1.0  0.28120014328623183  0.31968217299618384  0.5977790746845724  1.0000
  N   N2        1.0  0.2374591254341755  0.40848583820678774  0.571697097523024  1.0000
  C   C10       1.0  0.3004542376761957  0.08735002672450376  0.6660658244584685  1.0000
  C   C11       1.0  0.3532477400826167  0.9802252237318931  0.6975235969045395  1.0000
  C   C12       1.0  0.44127126794403676  0.9941864406559259  0.693364423001636  1.0000
  O   O1        1.0  0.6071285178443364  0.24595220868057033  0.619385401073085  1.0000
  H   H1        1.0  0.771605515477528  0.05789430790251893  0.6742766601476815  1.0000
  H   H2        1.0  0.6236590746591081  0.937079572039169  0.7097571924132626  1.0000
  H   H3        1.0  0.4504534669879818  0.3183980334404186  0.5980507631670169  1.0000
  H   H4        1.0  0.2323355922718309  0.07519158887523991  0.6696847035484177  1.0000
  H   H5        1.0  0.3258937781907656  0.8860432135576474  0.7252301369136867  1.0000
  H   H6        1.0  0.4803413299225572  0.90933605480158  0.7182894439968159  1.0000
  C   C13       1.0  0.017845158523358107  0.02932037558251399  0.5709189641502708  1.0000
  C   C14       1.0  0.008108041398646737  0.03867223118683438  0.4349068429386085  1.0000
  C   C15       1.0  0.0022397728995771082  0.9262117848853647  0.3664713878311483  1.0000
  C   C16       1.0  0.008150040577161954  0.8034040048406631  0.4352180502884324  1.0000
  C   C17       1.0  0.017959369690785598  0.7920521084478989  0.5711601571244034  1.0000
  C   C18       1.0  0.022528320522119394  0.9056100408493183  0.6382610082454852  1.0000
  C   C19       1.0  0.9928417266328923  0.9359497461213172  0.22269851201158408  1.0000
  O   O2        1.0  0.027587003309418323  0.8505463108232513  0.1587816406917817  1.0000
  C   C20       1.0  0.9440174865174601  0.0424918804083263  0.15144146034547612  1.0000
  C   C21       1.0  0.9677251553934518  0.08738267919407616  0.024372750071198324  1.0000
  C   C22       1.0  0.9219076764902526  0.1868392111839896  0.9548547882162173  1.0000
  O   O3        1.0  0.9489835265989681  0.2283437903379819  0.8288409432389705  1.0000
  C   C23       1.0  0.9086098786646827  0.32821451529894796  0.7472854466298173  1.0000
  C   C24       1.0  0.8508190035663874  0.24142637676537326  0.01312713351510908  1.0000
  C   C25       1.0  0.8262417152469617  0.1962541037999903  0.13867618499636758  1.0000
  C   C26       1.0  0.8722097007301052  0.0970771768178853  0.20744243708236776  1.0000
  H   H7        1.0  0.037513162405794276  0.2189988542245882  0.8273668151932159  1.0000
  H   H8        1.0  0.006019961760247217  0.13361468727251258  0.3818717537656493  1.0000
  H   H9        1.0  0.004264204671513339  0.7165698108192788  0.382484794129746  1.0000
  H   H10       1.0  0.03003546972399862  0.8975966387046673  0.7431163894274697  1.0000
  H   H11       1.0  0.022432484436953226  0.46023681243794823  0.6232596155573495  1.0000
  H   H12       1.0  0.022517893011039236  0.045925189976016245  0.9791662013328901  1.0000
  H   H13       1.0  0.9431919132875092  0.34093539219389957  0.6535206651755927  1.0000
  H   H14       1.0  0.9098493593754561  0.42167024309417145  0.794307421358944  1.0000
  H   H15       1.0  0.8422109535933779  0.30064331524452004  0.7273210268025436  1.0000
  H   H16       1.0  0.8140242853840702  0.31828277173266106  0.9621284279033713  1.0000
  H   H17       1.0  0.7711289718147921  0.23787591373144323  0.18266005653531736  1.0000
  H   H18       1.0  0.8510545790097346  0.06216495417900014  0.3037555198581501  1.0000
  C   C27       1.0  0.017973575198845237  0.41058437959754834  0.18967206797158087  1.0000
  C   C28       1.0  0.04476790522459151  0.27986019326636424  0.19857304838433554  1.0000
  C   C29       1.0  0.059202811545091105  0.21437351487205758  0.08585661007596523  1.0000
  C   C30       1.0  0.04468690850132129  0.28015414226791324  0.9633068462821099  1.0000
  C   C31       1.0  0.017830914862234648  0.4107880591577733  0.9524070565011127  1.0000
  C   C32       1.0  0.004843240224655876  0.47534906524730003  0.06618026762991636  1.0000
  C   C33       1.0  0.08663811992447701  0.07592887631611323  0.09514114313969313  1.0000
  O   O4        1.0  0.06052981528621948  0.0029466952520689205  0.010857902360206229  1.0000
  C   C34       1.0  0.14369777554287788  0.02028238033829166  0.19994131039183904  1.0000
  C   C35       1.0  0.13685220905677875  0.8883897049711931  0.24515211644347468  1.0000
  C   C36       1.0  0.19102567908625878  0.834638185019217  0.34285541003581943  1.0000
  F   F1        1.0  0.18350344875573343  0.7076460028066385  0.3864613683506266  1.0000
  C   C37       1.0  0.25292082499090984  0.9116403959669221  0.39553479000008607  1.0000
  C   C38       1.0  0.26098641848966553  0.04231536324115459  0.35026222984460254  1.0000
  C   C39       1.0  0.20698103221939435  0.09647696701333697  0.2526305498040138  1.0000
  H   H19       1.0  0.9661646253445056  0.6566760547433437  0.3802385101926784  1.0000
  H   H20       1.0  0.053538609323148245  0.228381395702965  0.29338890271106877  1.0000
  H   H21       1.0  0.05518146978754879  0.22949901904800551  0.8762967765208862  1.0000
  H   H22       1.0  0.9841864106584579  0.576127374702603  0.058514218334061674  1.0000
  H   H23       1.0  0.006831128062258385  0.4606399748938148  0.6207873763715979  1.0000
  H   H24       1.0  0.08911065801225937  0.8273527140044035  0.2056155492547136  1.0000
  H   H25       1.0  0.29488427227197933  0.8700102753380673  0.4710652073834629  1.0000
  H   H26       1.0  0.30939257086681526  0.10159793317236976  0.3904391765124309  1.0000
  H   H27       1.0  0.2153267574885358  0.19735249695504997  0.21742691087478683  1.0000
  Zn  Zn1       1.0  0.9250583770807449  0.4116203452893432  0.5707610125199396  1.0000
  Zn  Zn2       1.0  0.11073802947300071  0.40975158458438465  0.5713174689225415  1.0000
  C   C40       1.0  0.01785523837054992  0.40557590131110666  0.8082321523990679  1.0000
  C   C41       1.0  0.017943196020739238  0.4157976468177651  0.33384646310400434  1.0000
  C   C42       1.0  0.017934380635882485  0.6478782278648421  0.5659393864219151  1.0000
  C   C43       1.0  0.01786399014934914  0.17349376060969202  0.5761392976362791  1.0000
  O   O5        1.0  0.08839746004794335  0.4168324162020476  0.3824438776730903  1.0000
  O   O6        1.0  0.0883275340975822  0.403121805964612  0.7600567012096116  1.0000
  O   O7        1.0  0.08839049233057894  0.5987840089087231  0.5644035760017816  1.0000
  O   O8        1.0  0.08833443847465938  0.22117022315988066  0.5780969053196747  1.0000
  O   O9        1.0  0.9474619047157349  0.6002017073529751  0.5639815759260842  1.0000
  O   O10       1.0  0.9473989467254444  0.40454106470232976  0.7596346323820706  1.0000
  O   O11       1.0  0.9474688730173637  0.41825162926598036  0.38202024743658125  1.0000
  O   O12       1.0  0.947405851421016  0.22258942696099782  0.5776733724476901  1.0000
