data_image0
_chemical_formula_structural       NC9NC3OH6C7OC3FC3H9C7OC3FC3H9Zn2C4O8
_chemical_formula_sum              "N2 C42 O11 H24 F2 Zn2"
_cell_length_a       15.78231758774541
_cell_length_b       10.29937835083307
_cell_length_c       10.29938172300155
_cell_angle_alpha    85.56710995607625
_cell_angle_beta     90.06753164669173
_cell_angle_gamma    89.65202187042591

_space_group_name_H-M_alt    "P 1"
_space_group_IT_number       1

loop_
  _space_group_symop_operation_xyz
  'x, y, z'

loop_
  _atom_site_type_symbol
  _atom_site_label
  _atom_site_symmetry_multiplicity
  _atom_site_fract_x
  _atom_site_fract_y
  _atom_site_fract_z
  _atom_site_occupancy
  N   N1        1.0  0.7984566665461132  0.41294559398463737  0.5697086550234154  1.0000
  C   C1        1.0  0.7499018736359034  0.33088525102454636  0.5938006601843435  1.0000
  C   C2        1.0  0.6896193010980558  0.22902841893539794  0.6237050450425088  1.0000
  C   C3        1.0  0.7092464240487449  0.10107980265757077  0.6611903621789939  1.0000
  C   C4        1.0  0.6324986428881687  0.039070914455181516  0.6794317649827923  1.0000
  C   C5        1.0  0.5707442302221749  0.13376754511541278  0.6517296201700791  1.0000
  C   C6        1.0  0.47764838052803443  0.11625960992359641  0.6569430890786279  1.0000
  C   C7        1.0  0.4239330556897829  0.22361006612004486  0.6253742047704727  1.0000
  C   C8        1.0  0.335722576751787  0.2092539809180105  0.6296562849447764  1.0000
  C   C9        1.0  0.2813116224233269  0.31972785212268207  0.5971606411875969  1.0000
  N   N2        1.0  0.23757810619262404  0.40853459115965096  0.5710370485807967  1.0000
  C   C10       1.0  0.3005460907338333  0.0873876639681026  0.665556267162611  1.0000
  C   C11       1.0  0.3533305438548707  0.9802591529861542  0.6970642407615675  1.0000
  C   C12       1.0  0.4413552510793581  0.9942208531600234  0.6928985243104806  1.0000
  O   O1        1.0  0.6072337686993737  0.24599533573776355  0.6188015191375358  1.0000
  H   H1        1.0  0.7716948802859613  0.05793092557372881  0.6737809064808866  1.0000
  H   H2        1.0  0.6237382337356024  0.9371120078613586  0.7093180553175753  1.0000
  H   H3        1.0  0.450564837648375  0.31844366811805314  0.5974329314474485  1.0000
  H   H4        1.0  0.23242641825477772  0.07522880526991682  0.6691808439768989  1.0000
  H   H5        1.0  0.32596862601011  0.8860738828209466  0.7248149166324367  1.0000
  H   H6        1.0  0.4804181453867598  0.9093675303170692  0.7178633081530466  1.0000
  C   C13       1.0  0.01793210957082425  0.029356004203257458  0.5704366008870507  1.0000
  C   C14       1.0  0.9295302589766584  0.03024762578161666  0.5541444481733333  1.0000
  C   C15       1.0  0.8848349510988982  0.9134109781900238  0.5474041562471961  1.0000
  C   C16       1.0  0.929737441360936  0.7950015434426076  0.5541519501412  1.0000
  C   C17       1.0  0.018110726965793855  0.7921141537350677  0.5703203479338219  1.0000
  C   C18       1.0  0.06167051909223131  0.9098168828202081  0.5787109715815937  1.0000
  C   C19       1.0  0.7915936557081271  0.9143134449862754  0.528827890729896  1.0000
  O   O2        1.0  0.7588782991175764  0.8299349039234744  0.4620681516298606  1.0000
  C   C20       1.0  0.735465979838911  0.010839218248632543  0.5859968200414021  1.0000
  C   C21       1.0  0.6600003328994123  0.051579384541999174  0.521987901058621  1.0000
  C   C22       1.0  0.6061661067706088  0.14139060923556523  0.5758857604847629  1.0000
  F   F1        1.0  0.5338815835918144  0.18079116186493915  0.5129478212136862  1.0000
  C   C23       1.0  0.6267668888125926  0.19051023611790452  0.694552747867413  1.0000
  C   C24       1.0  0.7010158850130787  0.14953024822066352  0.7597725451715478  1.0000
  C   C25       1.0  0.7550252369075221  0.05978897399083083  0.7062799262845774  1.0000
  H   H7        1.0  0.1849051075431758  0.2351461207751686  0.5991861840736075  1.0000
  H   H8        1.0  0.8954393663207744  0.12209929014736298  0.5452282161041795  1.0000
  H   H9        1.0  0.8954367196606601  0.7048759871182667  0.5479958990566838  1.0000
  H   H10       1.0  0.1298217765387779  0.9083255053251121  0.5912702684972371  1.0000
  H   H11       1.0  0.05213965779641461  0.46363204311649386  0.5754356881783498  1.0000
  H   H12       1.0  0.6431357417248882  0.014723786490193458  0.42977882803054945  1.0000
  H   H13       1.0  0.585070046004667  0.2599276184705923  0.7363054464695058  1.0000
  H   H14       1.0  0.7165705044551625  0.1868862217808407  0.8521912249798695  1.0000
  H   H15       1.0  0.8114836070263026  0.02767329335827262  0.7596026994848635  1.0000
  C   C26       1.0  0.01809273322996452  0.4106332051887629  0.18901103560446697  1.0000
  C   C27       1.0  0.04487602043056094  0.27990449400548467  0.19797327638532147  1.0000
  C   C28       1.0  0.05930539481424435  0.21441554887277126  0.08528752664451167  1.0000
  C   C29       1.0  0.044795048538406546  0.28019845318170633  0.9627069365318155  1.0000
  C   C30       1.0  0.017950090099027927  0.4108368917990981  0.9517459286850607  1.0000
  C   C31       1.0  0.0049678692028094495  0.4754001325860573  0.06548888503769046  1.0000
  C   C32       1.0  0.08672900818921403  0.07596611823106025  0.09463693805827833  1.0000
  O   O3        1.0  0.06061453843731357  0.0029814109812809075  0.010387898411742924  1.0000
  C   C33       1.0  0.1437839631126434  0.020317696120280004  0.1994631825415989  1.0000
  C   C34       1.0  0.13692725509418158  0.8884204554553197  0.24473579654224076  1.0000
  C   C35       1.0  0.1910961845053334  0.8346670749625791  0.34246427933629753  1.0000
  F   F2        1.0  0.18356322660783753  0.707670497076501  0.38612974911601694  1.0000
  C   C36       1.0  0.25299783511256124  0.9116719512442609  0.3951075742889105  1.0000
  C   C37       1.0  0.2610744672787244  0.042351441666932166  0.3497737768305129  1.0000
  C   C38       1.0  0.20707365626829688  0.09651492017441154  0.2521167154134776  1.0000
  H   H16       1.0  0.9663045717807066  0.6567333984861174  0.37946215359193425  1.0000
  H   H17       1.0  0.05364237589726617  0.22842391456872702  0.2928132548636484  1.0000
  H   H18       1.0  0.05528533077203979  0.22954157659888397  0.8757206049293949  1.0000
  H   H19       1.0  0.9843195528068321  0.5761819303548652  0.05777560870216569  1.0000
  H   H20       1.0  0.0069545145013114595  0.4606905330960449  0.6201028867982905  1.0000
  H   H21       1.0  0.08918054799677089  0.8273813517704163  0.20522783269490508  1.0000
  H   H22       1.0  0.2949577657211928  0.8700403896415225  0.4706575005067679  1.0000
  H   H23       1.0  0.30948562750539743  0.10163606358919974  0.38992294231906777  1.0000
  H   H24       1.0  0.21542790292028502  0.19739394179479275  0.21686580388481858  1.0000
  Zn  Zn1       1.0  0.9251776226242694  0.41166920673919805  0.5700994946754143  1.0000
  Zn  Zn2       1.0  0.11085711715440127  0.40980038134945485  0.5706568268223744  1.0000
  C   C39       1.0  0.017973973314315606  0.40562455354019056  0.8075734671203707  1.0000
  C   C40       1.0  0.01806279443859915  0.41584665285961986  0.33318298767965837  1.0000
  C   C41       1.0  0.018073583882420863  0.6479352670819847  0.5651671526857165  1.0000
  C   C42       1.0  0.017963120132686194  0.1735343796095037  0.5755893714003242  1.0000
  O   O4        1.0  0.08851714587715209  0.41688145806113397  0.3817799173319494  1.0000
  O   O5        1.0  0.08844606173353053  0.40317037324829497  0.7593991659765829  1.0000
  O   O6        1.0  0.08852554838071103  0.5988393487916737  0.5636543489486547  1.0000
  O   O7        1.0  0.08843759589052058  0.22121249242004115  0.5775246367939915  1.0000
  O   O8        1.0  0.9475970805248531  0.600257096307762  0.5632316845067757  1.0000
  O   O9        1.0  0.9475175942521835  0.4045896811118559  0.7589764320516703  1.0000
  O   O10       1.0  0.9475886787335046  0.41830072024932896  0.3813556220194734  1.0000
  O   O11       1.0  0.9475091287230272  0.2226317453451001  0.5771004388503806  1.0000
