data_image0
_chemical_formula_structural       NC9NC3OH6C7OC3NC3H11C7OC3FC3H9Zn2C4O8
_chemical_formula_sum              "N3 C42 O11 H26 F1 Zn2"
_cell_length_a       15.78231758774541
_cell_length_b       10.298746005989749
_cell_length_c       10.29938172300155
_cell_angle_alpha    85.57926667056456
_cell_angle_beta     90.06753164669173
_cell_angle_gamma    89.64076015714048

_space_group_name_H-M_alt    "P 1"
_space_group_IT_number       1

loop_
  _space_group_symop_operation_xyz
  'x, y, z'

loop_
  _atom_site_type_symbol
  _atom_site_label
  _atom_site_symmetry_multiplicity
  _atom_site_fract_x
  _atom_site_fract_y
  _atom_site_fract_z
  _atom_site_occupancy
  N   N1        1.0  0.7982757514702533  0.41301088570422806  0.5700088794091387  1.0000
  C   C1        1.0  0.7497314656547504  0.33094675076451363  0.5940834482893198  1.0000
  C   C2        1.0  0.6894619349754022  0.2290852119069322  0.6239661904848262  1.0000
  C   C3        1.0  0.709105440604744  0.1011306831684895  0.6614243209448463  1.0000
  C   C4        1.0  0.6323655991290086  0.03911892955715768  0.6796525480252134  1.0000
  C   C5        1.0  0.5705990614044191  0.13381993611542908  0.6519705244669145  1.0000
  C   C6        1.0  0.4775054534451599  0.11631119188807704  0.6571802732682552  1.0000
  C   C7        1.0  0.4237763833388605  0.22366660871139876  0.6256341989146421  1.0000
  C   C8        1.0  0.335567742569478  0.20930986011970965  0.6299132286906293  1.0000
  C   C9        1.0  0.28114264304754794  0.31978883628316535  0.5974410585549836  1.0000
  N   N2        1.0  0.2373977559063173  0.40859967904835104  0.5713363357113141  1.0000
  C   C10       1.0  0.3004068604460193  0.0874379117701023  0.6657873166063033  1.0000
  C   C11       1.0  0.35320503041700035  0.980304450417291  0.6972725274099056  1.0000
  C   C12       1.0  0.441227949970358  0.9942667957564211  0.693109777557728  1.0000
  O   O1        1.0  0.6070742301144164  0.24605291274456342  0.6190662697308202  1.0000
  H   H1        1.0  0.7715594216706617  0.05797981219019399  0.6740056969212407  1.0000
  H   H2        1.0  0.6236182449046712  0.937155311478075  0.7095171740084232  1.0000
  H   H3        1.0  0.4503960227008991  0.31850459293684463  0.5977130759498672  1.0000
  H   H4        1.0  0.2322887448003287  0.07527849121532659  0.6694093098916154  1.0000
  H   H5        1.0  0.32585517215568677  0.8861148279838321  0.7250031906808558  1.0000
  H   H6        1.0  0.48030170898861957  0.9094095518712232  0.7180565316638094  1.0000
  C   C13       1.0  0.017800309719237628  0.029403570382642963  0.5706553196936124  1.0000
  C   C14       1.0  0.05746019807418978  0.037480734369043534  0.44827233619629103  1.0000
  C   C15       1.0  0.07662328915995964  0.924450345124726  0.3856978945522076  1.0000
  C   C16       1.0  0.05746084255120398  0.8022441151544221  0.44822320160398066  1.0000
  C   C17       1.0  0.017881266905608095  0.792196960812496  0.5707011185134943  1.0000
  C   C18       1.0  0.9980982184191798  0.9063417096681259  0.6309849301178492  1.0000
  C   C19       1.0  0.11922385102564581  0.9327811566819253  0.25701260956245475  1.0000
  O   O2        1.0  0.17096315465418677  0.8442771346681871  0.23195704585280175  1.0000
  C   C20       1.0  0.10313123200888663  0.04145541089451976  0.156759404732153  1.0000
  C   C21       1.0  0.022901615717511703  0.10165041772670258  0.14440956515483694  1.0000
  C   C22       1.0  0.008071943461197773  0.20344643143073582  0.0484590276760144  1.0000
  N   N3        1.0  0.92648579182426  0.26449748594468137  0.03700845327377267  1.0000
  C   C23       1.0  0.07352454659018748  0.24465414364829963  0.9635236963506935  1.0000
  C   C24       1.0  0.15298108315041947  0.18430167415296927  0.9740151488594853  1.0000
  C   C25       1.0  0.1677449052949178  0.0829307199181093  0.06966128286700335  1.0000
  H   H7        1.0  0.9440375075621898  0.2214252968001582  0.8027652483307799  1.0000
  H   H8        1.0  0.07431878208853937  0.13181661275585688  0.40210203729257366  1.0000
  H   H9        1.0  0.07275121045067379  0.7148870006261498  0.4005720970559361  1.0000
  H   H10       1.0  0.9675317814207105  0.8993635563858187  0.7253219554296659  1.0000
  H   H11       1.0  0.9434144164733409  0.5658916608198862  0.802320398809319  1.0000
  H   H12       1.0  0.9715775366017299  0.06877790419627772  0.20821628752447152  1.0000
  H   H13       1.0  0.8772431561894531  0.23455385576671262  0.09981001791090649  1.0000
  H   H14       1.0  0.9147445273299211  0.34021296326935735  0.9657354028892295  1.0000
  H   H15       1.0  0.06286032277255749  0.3230941810030752  0.8890051967629304  1.0000
  H   H16       1.0  0.2032674309858078  0.21614842158644865  0.9078730070065895  1.0000
  H   H17       1.0  0.2298868364236344  0.037666176427909814  0.07637661111588478  1.0000
  C   C26       1.0  0.01791211423485728  0.41069839005368003  0.18931076865102714  1.0000
  C   C27       1.0  0.044712140080452656  0.2799636379425774  0.19824523203749478  1.0000
  C   C28       1.0  0.05914989973921436  0.21447166658871297  0.08554556712655548  1.0000
  C   C29       1.0  0.04463113054944845  0.2802576107025496  0.9629789546447887  1.0000
  C   C30       1.0  0.017769445023667174  0.41090208607630196  0.952045705011197  1.0000
  C   C31       1.0  0.004778957380551452  0.47546831030794  0.06580237983918003  1.0000
  C   C32       1.0  0.08659124032841903  0.07601583824744318  0.094865560638143  1.0000
  O   O3        1.0  0.060486115617053526  0.00302775839997782  0.01060101311289352  1.0000
  C   C33       1.0  0.14365332053575974  0.02036484464262389  0.19967998087754668  1.0000
  C   C34       1.0  0.13681350078207055  0.8884615090525024  0.244924569193246  1.0000
  C   C35       1.0  0.19098931283396303  0.8347056446349307  0.34264163040411755  1.0000
  F   F1        1.0  0.18347261571509899  0.7077031982815969  0.386280115797639  1.0000
  C   C36       1.0  0.2528811036538825  0.9117140792848968  0.39530128744581416  1.0000
  C   C37       1.0  0.2609410034773263  0.04239960836091816  0.3499952569233167  1.0000
  C   C38       1.0  0.2069332573167666  0.09656558974371432  0.2523497042275886  1.0000
  H   H18       1.0  0.9660924418517534  0.6568099555545222  0.379814178304694  1.0000
  H   H19       1.0  0.05348508717600331  0.228480679606327  0.2930742718601482  1.0000
  H   H20       1.0  0.05512789894412662  0.22959839328325327  0.8759818594080726  1.0000
  H   H21       1.0  0.9841177367746273  0.5762547651682217  0.05811051774172382  1.0000
  H   H22       1.0  0.006767486112017496  0.46075803109250146  0.6204132560863216  1.0000
  H   H23       1.0  0.08907460919724564  0.8274195847720582  0.20540363568346454  1.0000
  H   H24       1.0  0.2948463648125068  0.87008059390232  0.4708423677391984  1.0000
  H   H25       1.0  0.30934457283714756  0.1016869698047409  0.3901570192799144  1.0000
  H   H26       1.0  0.2152745873101607  0.19744927294825  0.21712022759523975  1.0000
  Zn  Zn1       1.0  0.9249968709784074  0.41173443947738275  0.5703994478528347  1.0000
  Zn  Zn2       1.0  0.110676604794955  0.40986552772987483  0.5709563829095197  1.0000
  C   C39       1.0  0.017793995632360282  0.4056895069570743  0.8078721359225813  1.0000
  C   C40       1.0  0.017881507908035665  0.4159120786361228  0.33348382848587343  1.0000
  C   C41       1.0  0.017862580475689782  0.6480114175918279  0.5655173079608928  1.0000
  C   C42       1.0  0.01781285952660494  0.173588608220973  0.5758387254021649  1.0000
  O   O4        1.0  0.08833572684901614  0.41694693165562136  0.38208097801482355  1.0000
  O   O5        1.0  0.08826639828746363  0.4032352132583694  0.7596973133116018  1.0000
  O   O6        1.0  0.0883208312682433  0.598913230596378  0.5639940722638372  1.0000
  O   O7        1.0  0.08828123052751691  0.2212689242203565  0.5777841214988062  1.0000
  O   O8        1.0  0.9473921818824662  0.6003310436260811  0.5635717090666623  1.0000
  O   O9        1.0  0.9473377490764086  0.4046545867076481  0.7592748809629382  1.0000
  O   O10       1.0  0.9474070779815091  0.41836625942742356  0.3816569842688906  1.0000
  O   O11       1.0  0.9473525816373505  0.22268824272859478  0.57736022511977  1.0000
