data_image0
_chemical_formula_structural       NC9NC3OH6C7OC3FC3H9C7OC3NC3H11Zn2C4O8
_chemical_formula_sum              "N3 C42 O11 H26 F1 Zn2"
_cell_length_a       15.78231758774541
_cell_length_b       10.29937835083307
_cell_length_c       10.298749378158432
_cell_angle_alpha    85.54775683836141
_cell_angle_beta     90.09282152326762
_cell_angle_gamma    89.65202187042591

_space_group_name_H-M_alt    "P 1"
_space_group_IT_number       1

loop_
  _space_group_symop_operation_xyz
  'x, y, z'

loop_
  _atom_site_type_symbol
  _atom_site_label
  _atom_site_symmetry_multiplicity
  _atom_site_fract_x
  _atom_site_fract_y
  _atom_site_fract_z
  _atom_site_occupancy
  N   N1        1.0  0.7980426976199091  0.4134341191957349  0.5695821038309241  1.0000
  C   C1        1.0  0.7494948776537376  0.3313655474562782  0.5936762406358655  1.0000
  C   C2        1.0  0.6892209603357736  0.22949850133208205  0.6235832714133935  1.0000
  C   C3        1.0  0.7088589326539972  0.1015370817030139  0.6610719052249052  1.0000
  C   C4        1.0  0.632116431098837  0.03952196303213529  0.6793149220154522  1.0000
  C   C5        1.0  0.5703540006068372  0.13422805553815786  0.6516103261360577  1.0000
  C   C6        1.0  0.4772596598459176  0.11671833965249312  0.6568242563287423  1.0000
  C   C7        1.0  0.423535198032053  0.22407957840448534  0.6252525788274599  1.0000
  C   C8        1.0  0.3353259584556305  0.20972203063041706  0.6295350378772662  1.0000
  C   C9        1.0  0.2809055989197631  0.32020700093128496  0.5970365189279221  1.0000
  N   N2        1.0  0.23716452174309063  0.40902266264938314  0.5709106149236516  1.0000
  C   C10       1.0  0.3001598629620562  0.08784345181060926  0.6654381965007861  1.0000
  C   C11       1.0  0.3529534354293327  0.9807041790775619  0.6969489579035326  1.0000
  C   C12       1.0  0.44097693697137486  0.9946673020786863  0.6927828728727248  1.0000
  O   O1        1.0  0.6068340087106097  0.24646709296526925  0.6186793116478277  1.0000
  H   H1        1.0  0.7713110329698298  0.05838390423776052  0.673663563529481  1.0000
  H   H2        1.0  0.6233646719290602  0.9375528485835658  0.709203856668607  1.0000
  H   H3        1.0  0.45015889295372447  0.3189227239241659  0.5973088332798282  1.0000
  H   H4        1.0  0.23204123954351322  0.07568335511489277  0.6690630940151328  1.0000
  H   H5        1.0  0.3255995494569119  0.8865094304904678  0.7247020891350779  1.0000
  H   H6        1.0  0.4800470568309667  0.9098054523531918  0.7177498655821606  1.0000
  C   C13       1.0  0.017518351333840165  0.02984428077976231  0.5703101141027076  1.0000
  C   C14       1.0  0.9291117853053061  0.03074146704770131  0.5540165198705462  1.0000
  C   C15       1.0  0.884414526586257  0.9139071216461815  0.5472756315680243  1.0000
  C   C16       1.0  0.9293189698608764  0.7954953821463469  0.554024022502182  1.0000
  C   C17       1.0  0.017696935081741527  0.7926024700185165  0.5701938508634974  1.0000
  C   C18       1.0  0.061259155704634916  0.9103023332321664  0.5785852169078671  1.0000
  C   C19       1.0  0.7911678546708244  0.9148159332854368  0.5286977224355538  1.0000
  O   O2        1.0  0.7584331758228849  0.8304601944410449  0.46193207647981116  1.0000
  C   C20       1.0  0.735056725192917  0.011322180132173676  0.5858717100145261  1.0000
  C   C21       1.0  0.6595725521653233  0.052084209083639976  0.5218571275667065  1.0000
  C   C22       1.0  0.6057539256827523  0.14187702461655038  0.5757597558383054  1.0000
  F   F1        1.0  0.5334511863892976  0.18129907410401302  0.5128162478617371  1.0000
  C   C23       1.0  0.6263890534861891  0.19095612002586848  0.6944372427942178  1.0000
  C   C24       1.0  0.7006569262390309  0.14995385588724663  0.7596628107010706  1.0000
  C   C25       1.0  0.7546507957759264  0.060230852405556146  0.7061654588240467  1.0000
  H   H7        1.0  0.18449967029206804  0.23562457774656687  0.5990622410325714  1.0000
  H   H8        1.0  0.8950183120262307  0.12259617680987622  0.5450994988993232  1.0000
  H   H9        1.0  0.895016466416017  0.7053719284608607  0.5478674267345078  1.0000
  H   H10       1.0  0.12941404818587277  0.9088066660284048  0.591145625061446  1.0000
  H   H11       1.0  0.051727346444224276  0.46411861222257106  0.5753096437098046  1.0000
  H   H12       1.0  0.6426812729379898  0.015260105633982501  0.42963989594340113  1.0000
  H   H13       1.0  0.5847042951531276  0.26035924147571965  0.7361936356463077  1.0000
  H   H14       1.0  0.7162382944003709  0.187278263252731  0.8520896676504897  1.0000
  H   H15       1.0  0.8111245990938531  0.028096959036742808  0.7594929499865568  1.0000
  C   C26       1.0  0.017568579071029822  0.4112517601211094  0.18885080054897374  1.0000
  C   C27       1.0  0.06387875405381083  0.5276560555265295  0.17895332489236848  1.0000
  C   C28       1.0  0.08644600265496738  0.5873275872968531  0.0567070991496208  1.0000
  C   C29       1.0  0.0638821329674435  0.5277048850034001  0.9437092982113175  1.0000
  C   C30       1.0  0.017646699423200518  0.41119494069234386  0.9516531552202458  1.0000
  C   C31       1.0  0.9945887245760849  0.3538902644610984  0.07464625050813134  1.0000
  C   C32       1.0  0.13603616537499108  0.7096023722055966  0.04615819128974219  1.0000
  O   O3        1.0  0.18898434280701837  0.7274140008253662  0.9549686551714882  1.0000
  C   C33       1.0  0.12556129535689586  0.8116625804953004  0.13900057492845486  1.0000
  C   C34       1.0  0.04629757075188756  0.8350337988448158  0.19546158561756766  1.0000
  C   C35       1.0  0.03684249278396612  0.9326347957286221  0.28211832369572387  1.0000
  N   N3        1.0  0.9561770689255239  0.9552976896179701  0.3395430898762779  1.0000
  C   C36       1.0  0.1067777505902141  0.008186445795235198  0.31171589939301203  1.0000
  C   C37       1.0  0.18537423380485607  0.9867726614551169  0.25479323722179514  1.0000
  C   C38       1.0  0.1947805553910038  0.8894838376222907  0.1685131085442928  1.0000
  H   H16       1.0  0.9311878544421993  0.1902799448595538  0.4149961256713659  1.0000
  H   H17       1.0  0.08323955872618849  0.5713091541437436  0.2665513340911807  1.0000
  H   H18       1.0  0.08176233602823801  0.5730490806353248  0.8493501080419801  1.0000
  H   H19       1.0  0.958895969741264  0.264161124194225  0.08152364064828821  1.0000
  H   H20       1.0  0.9305916645307037  0.1908089117795111  0.7593797376753395  1.0000
  H   H21       1.0  0.9916134603262556  0.7785736064049091  0.17126188014030141  1.0000
  H   H22       1.0  0.9036228304369922  0.8995513070980736  0.3181647087645503  1.0000
  H   H23       1.0  0.9484306453162704  0.02789685382854712  0.4039962719486969  1.0000
  H   H24       1.0  0.10028469203478085  0.08386910371021905  0.37841774123677085  1.0000
  H   H25       1.0  0.23915373451599375  0.04570185814444061  0.27758318524256476  1.0000
  H   H26       1.0  0.256332459220195  0.8742201914451662  0.12570110461839623  1.0000
  Zn  Zn1       1.0  0.9247637668187046  0.412157598456498  0.5699729780641458  1.0000
  Zn  Zn2       1.0  0.1104434226573634  0.4102885827063747  0.5705303595234701  1.0000
  C   C39       1.0  0.017628849551156067  0.4060318344943399  0.8074679620425245  1.0000
  C   C40       1.0  0.017580367937737984  0.4164159649341599  0.3330355088591259  1.0000
  C   C41       1.0  0.017658300510140945  0.648425343472425  0.5650401996642278  1.0000
  C   C42       1.0  0.0175508532609987  0.17402089622408745  0.575463340529565  1.0000
  O   O4        1.0  0.08804878477552269  0.4174341715416878  0.3816367383342616  1.0000
  O   O5        1.0  0.08808699489242011  0.40359410844494437  0.7592893984697715  1.0000
  O   O6        1.0  0.08810982715796056  0.599329941889964  0.5635272620753344  1.0000
  O   O7        1.0  0.08802588914229315  0.22169834803227872  0.5773987771541804  1.0000
  O   O8        1.0  0.947181236970421  0.6007478337698116  0.5631045602363967  1.0000
  O   O9        1.0  0.9471584050592812  0.40501356069599725  0.7588666271416529  1.0000
  O   O10       1.0  0.9471201948281716  0.4188535786506764  0.38121240548042845  1.0000
  O   O11       1.0  0.9470972991992773  0.22311774584487476  0.5769745416778274  1.0000
