data_image0
_chemical_formula_structural       NC9NC3OH6C7OC6H10C7OC6H10Zn2C4O8
_chemical_formula_sum              "N2 C42 O11 H26 Zn2"
_cell_length_a       15.78231758774541
_cell_length_b       10.299379429549807
_cell_length_c       10.299382801718286
_cell_angle_alpha    85.54943384292815
_cell_angle_beta     90.06446718373022
_cell_angle_gamma    89.62936124648849

_space_group_name_H-M_alt    "P 1"
_space_group_IT_number       1

loop_
  _space_group_symop_operation_xyz
  'x, y, z'

loop_
  _atom_site_type_symbol
  _atom_site_label
  _atom_site_symmetry_multiplicity
  _atom_site_fract_x
  _atom_site_fract_y
  _atom_site_fract_z
  _atom_site_occupancy
  N   N1        1.0  0.798141097891812  0.41307909533748366  0.5693660889047549  1.0000
  C   C1        1.0  0.7496066725112355  0.33101529574861455  0.593477665955841  1.0000
  C   C2        1.0  0.6893493810162943  0.2291541731174176  0.6234063442889695  1.0000
  C   C3        1.0  0.7090082637832581  0.10120017301244943  0.6609221775142893  1.0000
  C   C4        1.0  0.6322758720889083  0.03918867016554328  0.6791783700135243  1.0000
  C   C5        1.0  0.570497952093183  0.13388928246672194  0.6514536400263546  1.0000
  C   C6        1.0  0.477406445364335  0.1163806044450808  0.6566712850860221  1.0000
  C   C7        1.0  0.4236644777415358  0.2237355863533541  0.6250767967569775  1.0000
  C   C8        1.0  0.33545755968276375  0.20937889152700784  0.6293623013139023  1.0000
  C   C9        1.0  0.281019187669947  0.3198574207221987  0.5968403085288527  1.0000
  N   N2        1.0  0.23726363120301114  0.4086679042763812  0.5706955346961504  1.0000
  C   C10       1.0  0.3003113169122014  0.08750743235705039  0.6652913500542572  1.0000
  C   C11       1.0  0.3531223575835577  0.98037440470264  0.6968248747621335  1.0000
  C   C12       1.0  0.4411436017959703  0.9943366978461223  0.6926558279948125  1.0000
  O   O1        1.0  0.6069596347070212  0.24612179895115238  0.6184987720978925  1.0000
  H   H1        1.0  0.7714674323323845  0.05804948401340759  0.6735230126603864  1.0000
  H   H2        1.0  0.62354077097691  0.9372254722316743  0.7090889779050285  1.0000
  H   H3        1.0  0.4502727252547438  0.3185731902543245  0.597112904499915  1.0000
  H   H4        1.0  0.23219466038637251  0.07534805749338447  0.6689188271311639  1.0000
  H   H5        1.0  0.32578381327581635  0.8861851599626961  0.7245980149345657  1.0000
  H   H6        1.0  0.4802275550296602  0.9094797968794849  0.7176408501597682  1.0000
  C   C13       1.0  0.017715619060709287  0.029481499555800816  0.5701849094801692  1.0000
  C   C14       1.0  0.06905383922390174  0.019098923836765813  0.682085548442112  1.0000
  C   C15       1.0  0.09415293126038571  0.8966311396277745  0.7393737581691344  1.0000
  C   C16       1.0  0.06895076573040448  0.7838778330034097  0.6818089550029023  1.0000
  C   C17       1.0  0.017697197874456894  0.7922554543830147  0.5698879472479215  1.0000
  C   C18       1.0  0.992192845587727  0.9155303369477706  0.5149216959712375  1.0000
  C   C19       1.0  0.1490983138573163  0.8855771930040712  0.8567371607935668  1.0000
  O   O2        1.0  0.2028500638058195  0.7942532050864535  0.8692560444616289  1.0000
  C   C20       1.0  0.14306105599615537  0.9780236206934647  0.9599032632634452  1.0000
  C   C21       1.0  0.21552166007532714  0.006774410278183707  0.03168502077435753  1.0000
  C   C22       1.0  0.210251735671785  0.09260611203406999  0.13016097188941567  1.0000
  C   C23       1.0  0.13262858075979578  0.14968508371451295  0.1586840920288709  1.0000
  C   C24       1.0  0.06003757560686962  0.12062717280941437  0.08914603030269252  1.0000
  C   C25       1.0  0.06496725857481489  0.034878524711033476  0.9905813825131324  1.0000
  H   H7        1.0  0.9219067743685321  0.2564734213967925  0.357864234140878  1.0000
  H   H8        1.0  0.09035832804250576  0.10648102786715441  0.7239868881914395  1.0000
  H   H9        1.0  0.0887764669158082  0.6893857215514779  0.7253060116172818  1.0000
  H   H10       1.0  0.9526153457563953  0.9227304234174357  0.4286541326733373  1.0000
  H   H11       1.0  0.9985977517407805  0.4680601951558648  0.5262627031188147  1.0000
  H   H12       1.0  0.2763114546734582  0.9637145058068651  0.010821808812499722  1.0000
  H   H13       1.0  0.26640657821756397  0.11482271185670534  0.18442683099057255  1.0000
  H   H14       1.0  0.12866487957796746  0.21601017856286142  0.2350127971515934  1.0000
  H   H15       1.0  0.9997925593129129  0.1641207388769086  0.11201070935676183  1.0000
  H   H16       1.0  0.0076415518597889864  0.01198941011659893  0.9394717120635492  1.0000
  C   C26       1.0  0.01779093111398322  0.4107943950880275  0.188666929086311  1.0000
  C   C27       1.0  0.10680733141809395  0.4107637031382314  0.18763243395161178  1.0000
  C   C28       1.0  0.15170471537767094  0.40926005727376635  0.07005312774375239  1.0000
  C   C29       1.0  0.10660085411734999  0.41079381568995377  0.9523862292435687  1.0000
  C   C30       1.0  0.017621847049564376  0.41094255780748035  0.9514058943359096  1.0000
  C   C31       1.0  0.9737330348448648  0.4105972425272866  0.07011376326051466  1.0000
  C   C32       1.0  0.24569442991984558  0.4106116855529809  0.0687082949959874  1.0000
  O   O3        1.0  0.2830262935906962  0.4709491359702329  0.974270831541983  1.0000
  C   C33       1.0  0.2973332222929932  0.34350581871019825  0.17439671157475978  1.0000
  C   C34       1.0  0.3769732983667877  0.39316857508024294  0.20571959789096117  1.0000
  C   C35       1.0  0.4265454824793695  0.3297329992177527  0.30414858259722677  1.0000
  C   C36       1.0  0.3975152651975913  0.21571428594791886  0.37146912376178154  1.0000
  C   C37       1.0  0.31899879672074327  0.16459319394758865  0.34012718342375003  1.0000
  C   C38       1.0  0.26918524560220036  0.22765245969270342  0.24179967609928354  1.0000
  H   H17       1.0  0.8498036099486252  0.4128641290274637  0.3977829365769108  1.0000
  H   H18       1.0  0.14132605429600842  0.4133675964812271  0.2783346349456244  1.0000
  H   H19       1.0  0.1411283423129166  0.4106183320271941  0.8615392115383615  1.0000
  H   H20       1.0  0.9051080971464668  0.4106217024639991  0.07010704545449897  1.0000
  H   H21       1.0  0.9834400103498603  0.41210474133289865  0.6234870519770617  1.0000
  H   H22       1.0  0.4004951801863086  0.48161057488707915  0.1548208175556467  1.0000
  H   H23       1.0  0.4875365590810026  0.36900642220775426  0.32819040031825364  1.0000
  H   H24       1.0  0.4360076728823008  0.16669747345633623  0.4475479810047245  1.0000
  H   H25       1.0  0.29685612489059077  0.07568140371878451  0.39165907874966277  1.0000
  H   H26       1.0  0.20921167329901236  0.18508645237656962  0.21757599519144621  1.0000
  Zn  Zn1       1.0  0.9248623702144964  0.4118026531532959  0.5697572330712106  1.0000
  Zn  Zn2       1.0  0.11054232829079602  0.40993374841163677  0.5703150109919088  1.0000
  C   C39       1.0  0.017652067873374255  0.40574057298756117  0.8072339400555757  1.0000
  C   C40       1.0  0.01775465818344779  0.4159974469123693  0.33283843692714377  1.0000
  C   C41       1.0  0.017697460935856446  0.6480739713568378  0.5647688936163835  1.0000
  C   C42       1.0  0.017709201783723927  0.17366248879738477  0.5753035530222166  1.0000
  O   O4        1.0  0.08820706120420319  0.41702873294165155  0.3814353880013852  1.0000
  O   O5        1.0  0.08812645679728437  0.40328985164854037  0.7590599560518667  1.0000
  O   O6        1.0  0.0881621620738231  0.5989771453790291  0.5632677121925478  1.0000
  O   O7        1.0  0.08817129258902967  0.2213414491207628  0.5772275342919366  1.0000
  O   O8        1.0  0.9472333425528072  0.6003949530833477  0.5628447095740088  1.0000
  O   O9        1.0  0.9471976372500551  0.40470921973774465  0.7586368835802739  1.0000
  O   O10       1.0  0.9472782420604857  0.418448055468301  0.38101075414448426  1.0000
  O   O11       1.0  0.9472424734204914  0.2227607623769905  0.5768029978066294  1.0000
