data_image0
_chemical_formula_structural       NC9NC3OH6C7OC3OC4H12C7OC3OC4H12Zn2C4O8
_chemical_formula_sum              "N2 C44 O13 H30 Zn2"
_cell_length_a       15.78231758774541
_cell_length_b       10.299371110280156
_cell_length_c       10.299374482448636
_cell_angle_alpha    85.56563777426875
_cell_angle_beta     90.0656979821288
_cell_angle_gamma    89.64456115777638

_space_group_name_H-M_alt    "P 1"
_space_group_IT_number       1

loop_
  _space_group_symop_operation_xyz
  'x, y, z'

loop_
  _atom_site_type_symbol
  _atom_site_label
  _atom_site_symmetry_multiplicity
  _atom_site_fract_x
  _atom_site_fract_y
  _atom_site_fract_z
  _atom_site_occupancy
  N   N1        1.0  0.7983642688735598  0.41360353835008357  0.5703153362470168  1.0000
  C   C1        1.0  0.7498159541775961  0.3315341429358798  0.5943698200611385  1.0000
  C   C2        1.0  0.689541422671686  0.22966607437754694  0.6242276318211573  1.0000
  C   C3        1.0  0.7091786479533349  0.10170338254666711  0.6616544425521553  1.0000
  C   C4        1.0  0.6324357613704695  0.039687635919543496  0.6798674937616487  1.0000
  C   C5        1.0  0.5706738710440965  0.13439466368954522  0.6522086519908195  1.0000
  C   C6        1.0  0.4775794021227591  0.11688476085855948  0.6574141183985092  1.0000
  C   C7        1.0  0.4238556035345919  0.22424708507972024  0.6258943170961684  1.0000
  C   C8        1.0  0.3356462566620155  0.20988938292023662  0.6301698356901775  1.0000
  C   C9        1.0  0.281226582191162  0.32037547153328294  0.5977247027135373  1.0000
  N   N2        1.0  0.23748605611533163  0.40919203242693114  0.5716417142074277  1.0000
  C   C10       1.0  0.30047938903302795  0.08800956231963908  0.6660141003477773  1.0000
  C   C11       1.0  0.3532722983024902  0.9808692056954834  0.6974730925881478  1.0000
  C   C12       1.0  0.4412959045852213  0.9948324790352568  0.6933137574107415  1.0000
  O   O1        1.0  0.6071545493615297  0.24663482442567375  0.6193318669005248  1.0000
  H   H1        1.0  0.7716305120188811  0.05854978382326981  0.6742252544171483  1.0000
  H   H2        1.0  0.623683402214282  0.9377175053596983  0.7097071624619937  1.0000
  H   H3        1.0  0.4504799007702199  0.3190911976468829  0.5979964017308683  1.0000
  H   H4        1.0  0.23236067539462202  0.07584933519199999  0.6696331197619689  1.0000
  H   H5        1.0  0.3259178140032468  0.8866734966073863  0.7251807069352714  1.0000
  H   H6        1.0  0.48036549660194866  0.9099697695304209  0.7182397448888025  1.0000
  C   C13       1.0  0.01787210387623528  0.030026954534277728  0.5708635506620785  1.0000
  C   C14       1.0  0.008137551262919596  0.039446058460856914  0.43484615549751693  1.0000
  C   C15       1.0  0.002270573115789931  0.9270194486255638  0.3664080467635733  1.0000
  C   C16       1.0  0.008179544573613695  0.8041776782447809  0.4351573749145956  1.0000
  C   C17       1.0  0.01798631049596411  0.792758568146888  0.571104752988616  1.0000
  C   C18       1.0  0.02255399613934439  0.9062833239488994  0.6382082059860981  1.0000
  C   C19       1.0  0.9928752376896915  0.93682849532507  0.22262959606311972  1.0000
  O   O2        1.0  0.027621719520165566  0.8514566623748094  0.1587102463276744  1.0000
  C   C20       1.0  0.9440523411274616  0.04340586115711309  0.15136978136140167  1.0000
  C   C21       1.0  0.9677624058866484  0.08835948638436975  0.024296143920434776  1.0000
  C   C22       1.0  0.9219462377460764  0.18785039006307103  0.9547754864641109  1.0000
  O   O3        1.0  0.9490244638484796  0.2294172741026912  0.8287567552232202  1.0000
  C   C23       1.0  0.9086523536447919  0.3293283224574042  0.7471980962499778  1.0000
  C   C24       1.0  0.8508564660959197  0.24240874411338997  0.013050091308709266  1.0000
  C   C25       1.0  0.8262768105464974  0.19717439606971188  0.13860401103096143  1.0000
  C   C26       1.0  0.8722434994405166  0.09796346906584685  0.2073729295702993  1.0000
  H   H7        1.0  0.03753527242906607  0.21957863794975063  0.8273213456267532  1.0000
  H   H8        1.0  0.006050471602237817  0.1344147366268611  0.3818090098566502  1.0000
  H   H9        1.0  0.00429470295461476  0.7173695570687602  0.3824220739917603  1.0000
  H   H10       1.0  0.03005916829081401  0.8982180782744112  0.7430676529993971  1.0000
  H   H11       1.0  0.022458442905751275  0.4609175126594803  0.6232062316098175  1.0000
  H   H12       1.0  0.022555995874659285  0.04692434859007033  0.9790878422706455  1.0000
  H   H13       1.0  0.9432361562045374  0.3420955593692687  0.6534296790092022  1.0000
  H   H14       1.0  0.9098909477552463  0.42276080122980764  0.7942218942848345  1.0000
  H   H15       1.0  0.8422538050030414  0.30176699338893176  0.7272329022901567  1.0000
  H   H16       1.0  0.8140627094952655  0.3192903543141379  0.9620494081910778  1.0000
  H   H17       1.0  0.7711632377975084  0.23877445910433615  0.18258958807133796  1.0000
  H   H18       1.0  0.8510865617349522  0.06300362645625213  0.30368974694456896  1.0000
  C   C27       1.0  0.018007708969939085  0.4114794580294028  0.18960187140261842  1.0000
  C   C28       1.0  0.10651463338635692  0.42525470360456774  0.187502461719657  1.0000
  C   C29       1.0  0.15104826442098118  0.43367502453817997  0.06915593184527546  1.0000
  C   C30       1.0  0.10631209189741231  0.4251928672507985  0.9522629790288337  1.0000
  C   C31       1.0  0.017850685270861755  0.4113060415214871  0.9523663692706608  1.0000
  C   C32       1.0  0.9741864263697604  0.40487096129111233  0.07154362945574122  1.0000
  C   C33       1.0  0.24460470297974557  0.4468612124289042  0.06690396498727891  1.0000
  O   O4        1.0  0.28616665669173447  0.39290137084120436  0.9811654645307746  1.0000
  C   C34       1.0  0.2910076163570532  0.5212767993738343  0.16183559161731953  1.0000
  C   C35       1.0  0.3736693486835432  0.4837283416408509  0.20023795803217137  1.0000
  C   C36       1.0  0.41893840253077563  0.5535379678139603  0.28860021768753974  1.0000
  O   O5        1.0  0.5009111890638858  0.5108220494433566  0.3241278246958512  1.0000
  C   C37       1.0  0.5540084036001574  0.5721596252185372  0.4127000666945255  1.0000
  C   C38       1.0  0.38107740567960313  0.6633054758897616  0.3384350545338186  1.0000
  C   C39       1.0  0.29940515622151254  0.7021772125947103  0.29952554353808014  1.0000
  C   C40       1.0  0.2546251118502383  0.6321296633929323  0.21140571990267443  1.0000
  H   H19       1.0  0.8511287998705434  0.3834948852615305  0.4010394509430848  1.0000
  H   H20       1.0  0.14102481132871247  0.4280000088431166  0.27819895578474907  1.0000
  H   H21       1.0  0.14062722358306035  0.4307037398192888  0.8609748640060468  1.0000
  H   H22       1.0  0.9059540539398281  0.39425040195763184  0.07235840522683068  1.0000
  H   H23       1.0  0.9839474993747356  0.4048870418248802  0.6250330513975038  1.0000
  H   H24       1.0  0.4030414758428522  0.39912076654448003  0.16242154427517752  1.0000
  H   H25       1.0  0.6149917841592571  0.518189518017677  0.42282610389334163  1.0000
  H   H26       1.0  0.5234115619518425  0.5706660602076743  0.5098417856723967  1.0000
  H   H27       1.0  0.5670503033472125  0.6740348373478107  0.3751101281118632  1.0000
  H   H28       1.0  0.4142894649357205  0.7194098197508392  0.4067441428217047  1.0000
  H   H29       1.0  0.2708288735979534  0.7872658445728014  0.33737344657311863  1.0000
  H   H30       1.0  0.1919732417862876  0.6654860084879644  0.18100264523443155  1.0000
  Zn  Zn1       1.0  0.9250853254118033  0.4123270023369565  0.5707055929070768  1.0000
  Zn  Zn2       1.0  0.11076496731206187  0.41045796650387545  0.571262070886615  1.0000
  C   C41       1.0  0.01787770917828957  0.4061651457663744  0.8081859408743932  1.0000
  C   C42       1.0  0.0179746113805912  0.41662144126331757  0.33378185698508833  1.0000
  C   C43       1.0  0.017961419878801843  0.6485872688637  0.5658837798475616  1.0000
  C   C44       1.0  0.01789083707272865  0.17419775847775942  0.5760840865696999  1.0000
  O   O6        1.0  0.08842795910252588  0.41763218268180724  0.38238115594854394  1.0000
  O   O7        1.0  0.0883509132544642  0.4037348697547871  0.7600086216524535  1.0000
  O   O8        1.0  0.08841756053123606  0.5994938092566235  0.5643479098754429  1.0000
  O   O9        1.0  0.08836124848730531  0.22187325313015194  0.5780417701605265  1.0000
  O   O10       1.0  0.9474889808732122  0.6009117163499054  0.5639258934364351  1.0000
  O   O11       1.0  0.9474223338404426  0.40515433717552773  0.7595865364589369  1.0000
  O   O12       1.0  0.9474993800595027  0.419051605200768  0.38195750928551475  1.0000
  O   O13       1.0  0.9474326694193831  0.22329266633815759  0.5776182208657967  1.0000
