data_image0
_chemical_formula_structural       NC9NC3OH6C6SCOC6H10C7OC3FC3H9Zn2C4O8
_chemical_formula_sum              "N2 C42 O11 H25 S1 F1 Zn2"
_cell_length_a       15.78231758774541
_cell_length_b       10.302038109246572
_cell_length_c       10.29938172300155
_cell_angle_alpha    85.58271297890445
_cell_angle_beta     90.06753164669173
_cell_angle_gamma    89.64990665055792

_space_group_name_H-M_alt    "P 1"
_space_group_IT_number       1

loop_
  _space_group_symop_operation_xyz
  'x, y, z'

loop_
  _atom_site_type_symbol
  _atom_site_label
  _atom_site_symmetry_multiplicity
  _atom_site_fract_x
  _atom_site_fract_y
  _atom_site_fract_z
  _atom_site_occupancy
  N   N1        1.0  0.7984230407047783  0.4125513544450268  0.5700944950135847  1.0000
  C   C1        1.0  0.7498702006992553  0.33051390793046553  0.5941640915537876  1.0000
  C   C2        1.0  0.6895900521908176  0.228685495895677  0.6240406618667504  1.0000
  C   C3        1.0  0.7092202201135765  0.10077257979186216  0.6614910394464286  1.0000
  C   C4        1.0  0.6324739146651899  0.03878099328575968  0.6797155091786942  1.0000
  C   C5        1.0  0.5707172483711079  0.13345120172829694  0.6520392236398262  1.0000
  C   C6        1.0  0.47762181533777415  0.11594815159386629  0.6572479115705574  1.0000
  C   C7        1.0  0.4239039357306605  0.22326865490705594  0.6257083419785103  1.0000
  C   C8        1.0  0.3356937984444914  0.20891657533442753  0.629986501866147  1.0000
  C   C9        1.0  0.2812802150148965  0.3193596221617785  0.5975210257513461  1.0000
  N   N2        1.0  0.23754458532608924  0.4081415823763632  0.5714216840367687  1.0000
  C   C10       1.0  0.3005202126496286  0.08708426147769832  0.665853205450512  1.0000
  C   C11       1.0  0.35330721525758757  0.9799856414519402  0.6973319249410308  1.0000
  C   C12       1.0  0.44133159021598  0.9939434460375627  0.6931700210799545  1.0000
  O   O1        1.0  0.6072041160067  0.24564767859540115  0.6191417692010475  1.0000
  H   H1        1.0  0.7716697032249351  0.057635742091212805  0.6740698008726178  1.0000
  H   H2        1.0  0.6237159319712434  0.9368505352270862  0.7095739570942887  1.0000
  H   H3        1.0  0.4505334608014663  0.31807579646967965  0.5977929653327669  1.0000
  H   H4        1.0  0.2324008295319291  0.07492879533961938  0.6694744619855619  1.0000
  H   H5        1.0  0.3259475388713543  0.8858266508248165  0.7250568811777756  1.0000
  H   H6        1.0  0.48039650389651445  0.9091137989363172  0.7181116336090672  1.0000
  C   C13       1.0  0.017907612547144236  0.0290687936843812  0.5707176921847155  1.0000
  C   C14       1.0  0.9454876115686697  0.034544884888789484  0.49097986916630565  1.0000
  C   C15       1.0  0.909853076008618  0.9203069205453871  0.4508229286895804  1.0000
  C   C16       1.0  0.945760152716971  0.7994095355490113  0.49092668714846854  1.0000
  C   C17       1.0  0.01806812283831194  0.7916141032111144  0.5708097509645207  1.0000
  C   C18       1.0  0.05381257771816572  0.907100087408928  0.6102061392243563  1.0000
  S   S1        1.0  0.8179288491866895  0.9287382345306828  0.34793682511190127  1.0000
  C   C19       1.0  0.8802504631320073  0.9365686846904581  0.2017043591837704  1.0000
  O   O2        1.0  0.9006894521602709  0.8310836090950864  0.15541645004629978  1.0000
  C   C20       1.0  0.908207019621663  0.06243703643957654  0.1362918139969589  1.0000
  C   C21       1.0  0.968132290404471  0.06414804478911251  0.034967192634064226  1.0000
  C   C22       1.0  0.9953755795366639  0.18219454041860317  0.973326920832458  1.0000
  C   C23       1.0  0.9631521930947764  0.2997650869343793  0.011730496944926339  1.0000
  C   C24       1.0  0.9034819950012665  0.2995237474322874  0.11170285579056727  1.0000
  C   C25       1.0  0.8759562235030297  0.18178380971724883  0.1736624439050325  1.0000
  H   H7        1.0  0.15431267102191248  0.2260520603165106  0.72118260594774  1.0000
  H   H8        1.0  0.9166662658226662  0.12734823450716615  0.4596172087708237  1.0000
  H   H9        1.0  0.9172118697555668  0.7119364821676046  0.45907632482126526  1.0000
  H   H10       1.0  0.10964366178163232  0.9019580880903864  0.6716753579256298  1.0000
  H   H11       1.0  0.045707425253556755  0.46133418820073957  0.600859628654475  1.0000
  H   H12       1.0  0.9943488217057168  0.9743121327615031  0.0037490983479349094  1.0000
  H   H13       1.0  0.04161019617893369  0.18246352418010758  0.89576966404463  1.0000
  H   H14       1.0  0.9843401586203164  0.3910443025436898  0.9639206232722919  1.0000
  H   H15       1.0  0.8783762669486688  0.3907309348872543  0.1411636671217713  1.0000
  H   H16       1.0  0.8292254733676234  0.18490722254730518  0.25008587213498057  1.0000
  C   C26       1.0  0.018059162419778563  0.4102396108509909  0.18939624413927536  1.0000
  C   C27       1.0  0.04484556075424928  0.27954737554274267  0.19832278618915766  1.0000
  C   C28       1.0  0.059276493669901065  0.21407670311047045  0.08561915306058432  1.0000
  C   C29       1.0  0.04476458186633736  0.2798412526985874  0.9630565266085269  1.0000
  C   C30       1.0  0.017916514441426834  0.41044324062876547  0.9521311928415717  1.0000
  C   C31       1.0  0.004932757043519587  0.47498846700495645  0.06589177979533467  1.0000
  C   C32       1.0  0.08670340191949788  0.07566590257598205  0.09493075740861179  1.0000
  O   O3        1.0  0.060590669086695526  0.0027015594913248897  0.010661787469750994  1.0000
  C   C33       1.0  0.14375968118621474  0.02003300746667036  0.19974180570410205  1.0000
  C   C34       1.0  0.13690611211075665  0.88817256871939  0.24497840187768904  1.0000
  C   C35       1.0  0.19107632076624137  0.83443418647433  0.3426922059722344  1.0000
  F   F1        1.0  0.18354638518382727  0.7074730431248761  0.38632299617294397  1.0000
  C   C36       1.0  0.2529761387807896  0.9114175768848628  0.39535652902446694  1.0000
  C   C37       1.0  0.2610496609844539  0.04206060516606147  0.3500584168560865  1.0000
  C   C38       1.0  0.20704756097001797  0.09620897100046877  0.2524161461260417  1.0000
  H   H17       1.0  0.9662651441802184  0.6562711373664696  0.3799145659147487  1.0000
  H   H18       1.0  0.053613141376263496  0.22808116019758362  0.29314870661291526  1.0000
  H   H19       1.0  0.05525606965247176  0.22919851037810757  0.8760563618841202  1.0000
  H   H20       1.0  0.9842820422022268  0.575742144675069  0.058206024440112136  1.0000
  H   H21       1.0  0.006919752406922219  0.4602829717817716  0.6205017647333855  1.0000
  H   H22       1.0  0.08916085764621706  0.8271504961418676  0.20545376978264085  1.0000
  H   H23       1.0  0.2949370601538861  0.8697976313045311  0.47089508670740843  1.0000
  H   H24       1.0  0.30945941033211  0.10132868551577867  0.39022377148740595  1.0000
  H   H25       1.0  0.21539940686291814  0.19705984539479315  0.2171927821270796  1.0000
  Zn  Zn1       1.0  0.9251440271589061  0.41127532333666883  0.5704849861162522  1.0000
  Zn  Zn2       1.0  0.11082356616408773  0.4094070193858719  0.5710418079338881  1.0000
  C   C39       1.0  0.01794052170201388  0.4052323567144869  0.8079573079180831  1.0000
  C   C40       1.0  0.018029099556710948  0.41545160386767055  0.333569619876217  1.0000
  C   C41       1.0  0.018034365663363916  0.6474754608135986  0.5656171624595938  1.0000
  C   C42       1.0  0.017935191894671743  0.17320694049542573  0.575909834194801  1.0000
  O   O4        1.0  0.0884834263685581  0.41648612033823285  0.3821668321078453  1.0000
  O   O5        1.0  0.08841266852678742  0.4027788611870382  0.7597823365992347  1.0000
  O   O6        1.0  0.08848749856584814  0.5983932412476449  0.5640909518590895  1.0000
  O   O7        1.0  0.08840853298981077  0.22087175017714955  0.5778581192848078  1.0000
  O   O8        1.0  0.9475589969698711  0.5998105931843634  0.5636686745684854  1.0000
  O   O9        1.0  0.9474841672681875  0.4041977730358617  0.7593599902516885  1.0000
  O   O10       1.0  0.9475549254487448  0.41790498652443464  0.38174292436026236  1.0000
  O   O11       1.0  0.9474800320463719  0.22229060710279946  0.5774343089035607  1.0000
