data_image0
_chemical_formula_structural       NC9NC3OH6C7OC6OCH12C7OC3NC3H11Zn2C4O8
_chemical_formula_sum              "N3 C43 O12 H29 Zn2"
_cell_length_a       15.78231758774541
_cell_length_b       10.299359160628079
_cell_length_c       10.298749378158432
_cell_angle_alpha    85.56206142688012
_cell_angle_beta     90.09282152326762
_cell_angle_gamma    89.65438836023732

_space_group_name_H-M_alt    "P 1"
_space_group_IT_number       1

loop_
  _space_group_symop_operation_xyz
  'x, y, z'

loop_
  _atom_site_type_symbol
  _atom_site_label
  _atom_site_symmetry_multiplicity
  _atom_site_fract_x
  _atom_site_fract_y
  _atom_site_fract_z
  _atom_site_occupancy
  N   N1        1.0  0.7980812782958973  0.4134089534356733  0.569936191899548  1.0000
  C   C1        1.0  0.7495312182104783  0.3313418429019117  0.5940097692021631  1.0000
  C   C2        1.0  0.6892545203600177  0.22947661048916257  0.6238912806398584  1.0000
  C   C3        1.0  0.7088889998815113  0.1015174691738403  0.6613478580496468  1.0000
  C   C4        1.0  0.6321448055801755  0.0395034546630888  0.6795753390516504  1.0000
  C   C5        1.0  0.570384960157419  0.1342078609562427  0.6518944685775838  1.0000
  C   C6        1.0  0.477290141456519  0.11669845682568791  0.6571040123037215  1.0000
  C   C7        1.0  0.42356861014299396  0.22405778404382248  0.6255592305262363  1.0000
  C   C8        1.0  0.3353589786672312  0.20970049190147955  0.6298380927785037  1.0000
  C   C9        1.0  0.2809416348961474  0.32018349505140975  0.5973672520981459  1.0000
  N   N2        1.0  0.23720298200527712  0.408997575433949  0.5712635978511822  1.0000
  C   C10       1.0  0.3001895564123345  0.08782408309230738  0.6657107188501379  1.0000
  C   C11       1.0  0.35298020443798994  0.9806867179410809  0.6971946401351594  1.0000
  C   C12       1.0  0.4410040871132714  0.9946495923330917  0.6930320530921166  1.0000
  O   O1        1.0  0.6068680319044683  0.24644490000179076  0.6189915717804775  1.0000
  H   H1        1.0  0.7713399223010876  0.05836506003764841  0.673928705786502  1.0000
  H   H2        1.0  0.6233902630918755  0.9375361557432612  0.7094387287952097  1.0000
  H   H3        1.0  0.4501948938748667  0.3188992409104481  0.5976392447179253  1.0000
  H   H4        1.0  0.23207060107542044  0.07566420290337472  0.6693325700639217  1.0000
  H   H5        1.0  0.3256237473538168  0.8864936464625338  0.7249241740612848  1.0000
  H   H6        1.0  0.4800718906091336  0.9097892535467488  0.7179777865379888  1.0000
  C   C13       1.0  0.01754646165605145  0.029825944718873787  0.5705681067232429  1.0000
  C   C14       1.0  0.9474548828096574  0.03581732370076729  0.4859526383661674  1.0000
  C   C15       1.0  0.9127099039232218  0.9218485912942423  0.44218352354907364  1.0000
  C   C16       1.0  0.9476567381855359  0.800553763707599  0.4862083748699606  1.0000
  C   C17       1.0  0.017745891444318262  0.7925704830057309  0.5706429618222641  1.0000
  C   C18       1.0  0.05240410704330101  0.9077958179829321  0.6121261107039775  1.0000
  C   C19       1.0  0.8381117450291986  0.9303172123967317  0.3540176189199806  1.0000
  O   O2        1.0  0.7842675529685676  0.019729940463896423  0.36542229816793537  1.0000
  C   C20       1.0  0.8245945765777283  0.837422651398047  0.2529213162020747  1.0000
  C   C21       1.0  0.89350645766007  0.7833863343034269  0.18906941944965205  1.0000
  C   C22       1.0  0.8798777206832328  0.6971438121161669  0.09293886160340947  1.0000
  C   C23       1.0  0.7975599875507238  0.6640590472224468  0.05792459389911575  1.0000
  C   C24       1.0  0.7283627703913441  0.7191331049082264  0.12046376604700249  1.0000
  C   C25       1.0  0.7419140322492085  0.805435291272347  0.21664051483833568  1.0000
  O   O3        1.0  0.7872876527859366  0.576942478226603  0.9609876242166266  1.0000
  C   C26       1.0  0.7074344446212865  0.534903594823631  0.9158746342877504  1.0000
  H   H7        1.0  0.14958778648206272  0.22576030219003895  0.7306550790305772  1.0000
  H   H8        1.0  0.9202014545879678  0.12942163431408815  0.452882878045916  1.0000
  H   H9        1.0  0.9195252557077955  0.7122014863912645  0.45566948432029597  1.0000
  H   H10       1.0  0.10647041702075777  0.9023696844097989  0.6772633806415207  1.0000
  H   H11       1.0  0.044415946396787476  0.4620047026030538  0.6034442722031921  1.0000
  H   H12       1.0  0.9579273434816661  0.8088254349873664  0.21239709152978037  1.0000
  H   H13       1.0  0.9336469082776838  0.6561595851743107  0.04491634669757372  1.0000
  H   H14       1.0  0.6639063075321322  0.6959714757150295  0.09549124149544608  1.0000
  H   H15       1.0  0.6876711854377014  0.8463785617981426  0.26361075412404267  1.0000
  H   H16       1.0  0.71800363678595  0.4664077428397914  0.8394257552226554  1.0000
  H   H17       1.0  0.6701983464912885  0.6196291088027995  0.8732487068648491  1.0000
  H   H18       1.0  0.671874374408994  0.483685318523257  0.9973092752291279  1.0000
  C   C27       1.0  0.017607100177995383  0.4112266332172798  0.18920434190141266  1.0000
  C   C28       1.0  0.06392045249769263  0.5276288560799982  0.17933602740030752  1.0000
  C   C29       1.0  0.08648932987517566  0.5872993254170389  0.05710475033974438  1.0000
  C   C30       1.0  0.06392383274415958  0.5276776846874753  0.9440920129518293  1.0000
  C   C31       1.0  0.017685218979240025  0.411169814800167  0.9520066823385012  1.0000
  C   C32       1.0  0.9946256799607804  0.35386615886106854  0.07498542187973012  1.0000
  C   C33       1.0  0.1360828301712449  0.7095719332608195  0.04658647428777396  1.0000
  O   O4        1.0  0.18903149378417305  0.7273832447500164  0.9554014002700812  1.0000
  C   C34       1.0  0.1256107459581428  0.8116303243998833  0.1394544256565602  1.0000
  C   C35       1.0  0.046347659286937626  0.8350011266320405  0.1959212912132291  1.0000
  C   C36       1.0  0.03689524540670597  0.9326003857600946  0.2826024799170024  1.0000
  N   N3        1.0  0.9562304401478533  0.9552628761435831  0.34003292351839765  1.0000
  C   C37       1.0  0.10683256544825093  0.008150690652799941  0.31221898252251323  1.0000
  C   C38       1.0  0.18542846415862546  0.9867372875785303  0.25529095585256534  1.0000
  C   C39       1.0  0.19483213017806578  0.8894501959433101  0.168986454753836  1.0000
  H   H19       1.0  0.9312203439684277  0.19025875229097777  0.41529431001619943  1.0000
  H   H20       1.0  0.08328244871202539  0.5712811774672082  0.2669449724051609  1.0000
  H   H21       1.0  0.08180527350658928  0.5730210729799334  0.8497441822356389  1.0000
  H   H22       1.0  0.9589304759061196  0.26413861619395895  0.08184033342145436  1.0000
  H   H23       1.0  0.9306241684954554  0.19078770979284165  0.7596780545349269  1.0000
  H   H24       1.0  0.9916620077407392  0.7785419394485067  0.1717074415461317  1.0000
  H   H25       1.0  0.9036746800226975  0.8995174861708932  0.3186405770377494  1.0000
  H   H26       1.0  0.9484859981837246  0.027860747748355674  0.4045042928536611  1.0000
  H   H27       1.0  0.1003415727040673  0.08383200106132138  0.37893978409407625  1.0000
  H   H28       1.0  0.23920957338353288  0.04566543505161924  0.27809566658859586  1.0000
  H   H29       1.0  0.2563836173753258  0.874186821530714  0.12617062703812  1.0000
  Zn  Zn1       1.0  0.9248023126511636  0.41213245542449584  0.5703267463437138  1.0000
  Zn  Zn2       1.0  0.1104819174737266  0.41026347295162324  0.5708836595844149  1.0000
  C   C40       1.0  0.017667228176589278  0.40600680052968197  0.8078201957193112  1.0000
  C   C41       1.0  0.01761903000529763  0.4163907460832512  0.3333903439282535  1.0000
  C   C42       1.0  0.017703295436471977  0.6483959937658414  0.565453156828778  1.0000
  C   C43       1.0  0.017582898985086803  0.17399999314287484  0.5757574517201911  1.0000
  O   O5        1.0  0.08808747463574651  0.4174089345619232  0.38199182848058455  1.0000
  O   O6        1.0  0.0881253069784107  0.40356911788324923  0.7596410214568226  1.0000
  O   O7        1.0  0.08815348199085826  0.5993014663119156  0.5639279200490774  1.0000
  O   O8        1.0  0.08805923625588008  0.22167659606869106  0.5777048323163003  1.0000
  O   O9        1.0  0.947224930505673  0.600719332946634  0.5635055734149494  1.0000
  O   O10       1.0  0.9471967558902169  0.404988544861391  0.7592186057244119  1.0000
  O   O11       1.0  0.9471589234321081  0.4188283163988047  0.38156785121115044  1.0000
  O   O12       1.0  0.9471306850563235  0.22309596860934522  0.5772809524220173  1.0000
