data_image0
_chemical_formula_structural       NC9NC3OH6C7OC3FC3H9C7OC6H10Zn2C4O8
_chemical_formula_sum              "N2 C42 O11 H25 F1 Zn2"
_cell_length_a       15.78231758774541
_cell_length_b       10.29937835083307
_cell_length_c       10.299382801718286
_cell_angle_alpha    85.56292937340861
_cell_angle_beta     90.06446718373022
_cell_angle_gamma    89.65202187042591

_space_group_name_H-M_alt    "P 1"
_space_group_IT_number       1

loop_
  _space_group_symop_operation_xyz
  'x, y, z'

loop_
  _atom_site_type_symbol
  _atom_site_label
  _atom_site_symmetry_multiplicity
  _atom_site_fract_x
  _atom_site_fract_y
  _atom_site_fract_z
  _atom_site_occupancy
  N   N1        1.0  0.7985061701920793  0.4130497985709223  0.5697008343055949  1.0000
  C   C1        1.0  0.749950543436305  0.33098770037583036  0.5937929711996661  1.0000
  C   C2        1.0  0.6896669358813008  0.22912868958787125  0.623697519572598  1.0000
  C   C3        1.0  0.7092927614320755  0.10117734229864705  0.6611830416757767  1.0000
  C   C4        1.0  0.6325443489204468  0.03916712510979714  0.6794245442220954  1.0000
  C   C5        1.0  0.5707908950501372  0.13386577402354716  0.651722247936287  1.0000
  C   C6        1.0  0.47769486491323604  0.11635745900186412  0.6569357453516633  1.0000
  C   C7        1.0  0.42398063270193626  0.22371021516505762  0.625366688427393  1.0000
  C   C8        1.0  0.33577000555736586  0.20935381798994523  0.6296487920157658  1.0000
  C   C9        1.0  0.2813601759318199  0.3198300566808818  0.5971529705750249  1.0000
  N   N2        1.0  0.23762756386171643  0.408638698965164  0.5710292351265251  1.0000
  C   C10       1.0  0.30059227700933866  0.08748488552900335  0.6655489705318103  1.0000
  C   C11       1.0  0.3533756396115977  0.9803540790179901  0.6970571164138275  1.0000
  C   C12       1.0  0.4414004910152087  0.9943160826872003  0.6928913771849385  1.0000
  O   O1        1.0  0.6072815731979787  0.24609596363905184  0.6187939668555402  1.0000
  H   H1        1.0  0.7717407818994401  0.0580275479244472  0.6737736548217508  1.0000
  H   H2        1.0  0.6237829053769912  0.9372060411354493  0.7093109979727059  1.0000
  H   H3        1.0  0.4506133817326617  0.3185458528384102  0.5974252623237375  1.0000
  H   H4        1.0  0.23247247908048002  0.07532576276047354  0.6691735671649923  1.0000
  H   H5        1.0  0.32601276129144974  0.8861667870635095  0.7248079440231565  1.0000
  H   H6        1.0  0.4804625212694051  0.9094609410225203  0.7178562975329312  1.0000
  C   C13       1.0  0.017981588021941386  0.02946015575468519  0.5704287841495796  1.0000
  C   C14       1.0  0.929580301313562  0.030352964305921937  0.5541365423516842  1.0000
  C   C15       1.0  0.8848852267232551  0.9135168077816447  0.5473962135701738  1.0000
  C   C16       1.0  0.9297874834381896  0.7951068814203534  0.5541440443605712  1.0000
  C   C17       1.0  0.018160209440528208  0.7922183137561624  0.5703125305606891  1.0000
  C   C18       1.0  0.06171971116007513  0.9099204315382498  0.5787032000877148  1.0000
  C   C19       1.0  0.7916445742734307  0.9144206279609465  0.528819846479351  1.0000
  O   O2        1.0  0.7589315282963792  0.8300469507120936  0.4620597423424413  1.0000
  C   C20       1.0  0.7355149197371083  0.010942236152566176  0.5859890883859551  1.0000
  C   C21       1.0  0.6600514882027962  0.05168706584751481  0.5219798194075631  1.0000
  C   C22       1.0  0.6062153966215023  0.1414943637857642  0.5758779735428576  1.0000
  F   F1        1.0  0.5339330517803411  0.1808995017899615  0.5129396901322003  1.0000
  C   C23       1.0  0.6268120714943056  0.1906053451258023  0.6945456097870322  1.0000
  C   C24       1.0  0.7010588103800375  0.14962060560783774  0.7597657637077633  1.0000
  C   C25       1.0  0.7550700137012384  0.05988322860932094  0.7062728523274631  1.0000
  H   H7        1.0  0.18495359094584152  0.23524817776143525  0.5991785245365406  1.0000
  H   H8        1.0  0.8954897172563404  0.12220527826818395  0.5452202615292916  1.0000
  H   H9        1.0  0.895486974804276  0.7049817735981714  0.5479879596152635  1.0000
  H   H10       1.0  0.12987053391826953  0.9084281390293394  0.5912625656765818  1.0000
  H   H11       1.0  0.05218896322470812  0.46373583045693445  0.5754278987754848  1.0000
  H   H12       1.0  0.6431900884656823  0.014838185733519582  0.42977024218771076  1.0000
  H   H13       1.0  0.5851137835886265  0.2600196855648971  0.7362985366895161  1.0000
  H   H14       1.0  0.7166102311300355  0.18696984595919797  0.852184948853979  1.0000
  H   H15       1.0  0.8115265382717708  0.027763663119638515  0.7595959170923761  1.0000
  C   C26       1.0  0.01815541315657998  0.41076514568918276  0.18900113326274015  1.0000
  C   C27       1.0  0.1071718055313533  0.41073445437570943  0.1879666308574015  1.0000
  C   C28       1.0  0.1520688010204927  0.4092308396856936  0.07038696844970893  1.0000
  C   C29       1.0  0.1069653360102576  0.4107645663031214  0.9527204332827441  1.0000
  C   C30       1.0  0.017986367370347534  0.41091330533684123  0.9517401336107203  1.0000
  C   C31       1.0  0.9740974659526349  0.41056799721592174  0.07044792073332129  1.0000
  C   C32       1.0  0.24605886475900518  0.41058243994217514  0.06904245589021318  1.0000
  O   O3        1.0  0.2834063167517613  0.47091863940878653  0.9746192858215492  1.0000
  C   C33       1.0  0.2976803201739806  0.3434779643767263  0.17471497570823935  1.0000
  C   C34       1.0  0.37733322673742387  0.39313969111001135  0.20604962667324367  1.0000
  C   C35       1.0  0.42688902212012136  0.32970543043027645  0.30446358407683394  1.0000
  C   C36       1.0  0.39782934783620916  0.2156890810618246  0.3717571152601338  1.0000
  C   C37       1.0  0.3192996721052799  0.16456904893330404  0.34040306480704285  1.0000
  C   C38       1.0  0.26950241249601947  0.22762700729754104  0.24209049564085672  1.0000
  H   H16       1.0  0.850168626711842  0.4128348367177075  0.3981176310542158  1.0000
  H   H17       1.0  0.1416912011312239  0.41333829373329456  0.2786694486897239  1.0000
  H   H18       1.0  0.1414927788692082  0.4105890862785899  0.8618733740070765  1.0000
  H   H19       1.0  0.9054725345735186  0.410592456645517  0.07044120872163862  1.0000
  H   H20       1.0  0.9838048309234843  0.4120754647672038  0.6238215665624272  1.0000
  H   H21       1.0  0.4008779577551369  0.48157985728656394  0.15517179743173193  1.0000
  H   H22       1.0  0.4878902451027445  0.36897803918113925  0.3285147053094368  1.0000
  H   H23       1.0  0.4363090919123864  0.16667328481492172  0.44782436087241906  1.0000
  H   H24       1.0  0.2971340297054781  0.07565910207474857  0.3919138977501362  1.0000
  H   H25       1.0  0.20951784316495448  0.1850618824842929  0.21785673123859328  1.0000
  Zn  Zn1       1.0  0.9252271127429301  0.411773382850666  0.5700916760946735  1.0000
  Zn  Zn2       1.0  0.11090658798330466  0.409904516856213  0.570649011289081  1.0000
  C   C39       1.0  0.018015244249172113  0.4057114283674561  0.8075669470281754  1.0000
  C   C40       1.0  0.018120484446692675  0.41596808964086907  0.3331738736585479  1.0000
  C   C41       1.0  0.018123244713791564  0.648039802541678  0.5651593071353271  1.0000
  C   C42       1.0  0.018012420241867222  0.17363815575327668  0.5755815828377873  1.0000
  O   O4        1.0  0.088573153902614  0.4169993542889374  0.38177106903493474  1.0000
  O   O5        1.0  0.08848900002347304  0.4032607578381957  0.759392382471191  1.0000
  O   O6        1.0  0.08857526157155426  0.5989439944674351  0.5636464951263767  1.0000
  O   O7        1.0  0.08848682901845839  0.22131612756909314  0.5775168588133295  1.0000
  O   O8        1.0  0.9476468083444861  0.6003617727769508  0.5632238283734023  1.0000
  O   O9        1.0  0.9475605471733202  0.40468009650024683  0.7589696462348035  1.0000
  O   O10       1.0  0.9476447014442019  0.4184186473893783  0.3813467714024461  1.0000
  O   O11       1.0  0.9475583765328301  0.22273541139930364  0.5770926585502381  1.0000
