data_image0
_chemical_formula_structural       NC9NC3OH6C7OC6OCH12C7OC3FC3H9Zn2C4O8
_chemical_formula_sum              "N2 C43 O12 H27 F1 Zn2"
_cell_length_a       15.78231758774541
_cell_length_b       10.299359160628079
_cell_length_c       10.29938172300155
_cell_angle_alpha    85.58141560917656
_cell_angle_beta     90.06753164669173
_cell_angle_gamma    89.65438836023732

_space_group_name_H-M_alt    "P 1"
_space_group_IT_number       1

loop_
  _space_group_symop_operation_xyz
  'x, y, z'

loop_
  _atom_site_type_symbol
  _atom_site_label
  _atom_site_symmetry_multiplicity
  _atom_site_fract_x
  _atom_site_fract_y
  _atom_site_fract_z
  _atom_site_occupancy
  N   N1        1.0  0.798495131451603  0.41292055780903536  0.5700625894229994  1.0000
  C   C1        1.0  0.7499381045959748  0.3308616688873487  0.5941340389600318  1.0000
  C   C2        1.0  0.6896527591888556  0.22900664161329365  0.6240129092924693  1.0000
  C   C3        1.0  0.7092763989683217  0.10106029247444126  0.6614661760677287  1.0000
  C   C4        1.0  0.632526929727161  0.03905250301599561  0.6796920460168243  1.0000
  C   C5        1.0  0.5707750950068178  0.13374745573371816  0.6520136221423112  1.0000
  C   C6        1.0  0.47767876869059406  0.11623983076739242  0.6572227054180682  1.0000
  C   C7        1.0  0.4239663662756611  0.22358838480647303  0.6256807117555405  1.0000
  C   C8        1.0  0.3357554965190359  0.20923255398186935  0.6299591958165771  1.0000
  C   C9        1.0  0.28134754964325703  0.31970446768495675  0.5974912251017572  1.0000
  N   N2        1.0  0.23761645101648624  0.4085096331432094  0.5713898780506204  1.0000
  C   C10       1.0  0.3005756929095317  0.08736839639784488  0.6658286512526992  1.0000
  C   C11       1.0  0.3533572296493102  0.9802417836405874  0.6973097898019733  1.0000
  C   C12       1.0  0.44138231695600316  0.9942032364251876  0.6931475706730688  1.0000
  O   O1        1.0  0.607267688684003  0.24597325777654744  0.6191136334984255  1.0000
  H   H1        1.0  0.771723680554875  0.05791217995143483  0.6740459118346229  1.0000
  H   H2        1.0  0.6237637449265283  0.9370954030459381  0.7095527962568282  1.0000
  H   H3        1.0  0.4506007299087024  0.3184203064349589  0.5977631936812158  1.0000
  H   H4        1.0  0.23245568942739092  0.07520975314413425  0.6694501823457852  1.0000
  H   H5        1.0  0.3259927477797697  0.8860581823570214  0.7250368728273806  1.0000
  H   H6        1.0  0.4804429012841264  0.9093514171098286  0.7180910992670246  1.0000
  C   C13       1.0  0.017960131938837165  0.029337764903890395  0.570694448394313  1.0000
  C   C14       1.0  0.9478930403764391  0.03530024599713233  0.48608645885432633  1.0000
  C   C15       1.0  0.913160728048088  0.9213165655553258  0.4423212126112679  1.0000
  C   C16       1.0  0.9480948217434809  0.8000367733431365  0.4863421727546102  1.0000
  C   C17       1.0  0.01815954006442122  0.7920823287552734  0.5707692968771965  1.0000
  C   C18       1.0  0.05280575065217552  0.9073218310642945  0.6122487792321063  1.0000
  C   C19       1.0  0.8385880839161682  0.9297550762235843  0.35416310060788425  1.0000
  O   O2        1.0  0.7847405913996626  0.019171699218679228  0.365566771842627  1.0000
  C   C20       1.0  0.8251001722179092  0.8368259887989895  0.2530757333809841  1.0000
  C   C21       1.0  0.8940305317127659  0.7827678649941027  0.1892294802380079  1.0000
  C   C22       1.0  0.8804296144279584  0.6964925122829372  0.09310741898077857  1.0000
  C   C23       1.0  0.7981220142455333  0.6633957893107596  0.05809624604519237  1.0000
  C   C24       1.0  0.7289066985694289  0.7184912053848833  0.12062989061002094  1.0000
  C   C25       1.0  0.7424301273678399  0.8048262380480486  0.21679813872971132  1.0000
  O   O3        1.0  0.7878777325442391  0.5762461143851073  0.9611678442271785  1.0000
  C   C26       1.0  0.708037579848261  0.5341918239864046  0.9160588416519921  1.0000
  H   H7        1.0  0.14995512841341285  0.22532679530413335  0.7307672712652924  1.0000
  H   H8        1.0  0.9206491823743368  0.12889326262047662  0.4530196214356841  1.0000
  H   H9        1.0  0.9199721770645536  0.7116740663798855  0.4558059814132691  1.0000
  H   H10       1.0  0.10685321023668859  0.9019179431822897  0.6773802919512943  1.0000
  H   H11       1.0  0.04482010248534385  0.46152775066150536  0.6035677080837141  1.0000
  H   H12       1.0  0.9584446666253109  0.8082149325484426  0.21255509048008214  1.0000
  H   H13       1.0  0.9342126994927364  0.6554918846839025  0.04508914858971158  1.0000
  H   H14       1.0  0.6644574626311649  0.6953210475709999  0.09565957327833763  1.0000
  H   H15       1.0  0.6881736876091911  0.8457855498576803  0.26376422650701103  1.0000
  H   H16       1.0  0.7186288959277262  0.4656698631688297  0.8396167195923745  1.0000
  H   H17       1.0  0.6708138174437591  0.6189027803518384  0.8734366817614423  1.0000
  H   H18       1.0  0.6724539428671666  0.4830013592579812  0.9974862849166786  1.0000
  C   C27       1.0  0.018131135184823677  0.4106082099866937  0.18936439076452194  1.0000
  C   C28       1.0  0.04491086353110796  0.2798818152032707  0.19829388478704546  1.0000
  C   C29       1.0  0.05933845509590796  0.21439403047810401  0.08559173045813795  1.0000
  C   C30       1.0  0.044829899641463555  0.2801757691707898  0.9630276185685509  1.0000
  C   C31       1.0  0.017988497598889097  0.4108118929878777  0.9520993348673898  1.0000
  C   C32       1.0  0.005008034320915122  0.47537398976997247  0.0658584639247306  1.0000
  C   C33       1.0  0.08675829943384805  0.07594705304072868  0.09490646111964063  1.0000
  O   O4        1.0  0.06064184280440754  0.0029636390169267557  0.010639139241539475  1.0000
  C   C34       1.0  0.14381173942895642  0.020299616971926282  0.199718766006878  1.0000
  C   C35       1.0  0.13695144074506582  0.8884047134121544  0.24495834053955967  1.0000
  C   C36       1.0  0.19111890681699983  0.8346522853828907  0.3426733584340964  1.0000
  F   F1        1.0  0.18358249166581575  0.7076579577664892  0.3863070163324991  1.0000
  C   C37       1.0  0.2530226537436473  0.9116557972046718  0.3953359426465144  1.0000
  C   C38       1.0  0.2611028434241769  0.04233297209963727  0.3500348796169417  1.0000
  C   C39       1.0  0.20710350691714874  0.09649549087705678  0.2523913858265203  1.0000
  H   H19       1.0  0.966349673371218  0.6567040426011732  0.3798771553748479  1.0000
  H   H20       1.0  0.05367581753152084  0.2284021479579179  0.2931209676888902  1.0000
  H   H21       1.0  0.05531880283263524  0.2295197901840691  0.8760285977222741  1.0000
  H   H22       1.0  0.9843624615283314  0.5761540017723654  0.05817043282528167  1.0000
  H   H23       1.0  0.006994279176996576  0.4606646509213581  0.6204687810188538  1.0000
  H   H24       1.0  0.08920307196771171  0.8273666912874503  0.20543508676272837  1.0000
  H   H25       1.0  0.29498145100780393  0.8700249732772487  0.4708754404078037  1.0000
  H   H26       1.0  0.3095156175681788  0.10161654354960703  0.3901988955478308  1.0000
  H   H27       1.0  0.21546049981927462  0.1973727250083015  0.2171657438879293  1.0000
  Zn  Zn1       1.0  0.9252160527824096  0.41164419318007606  0.5704531093476461  1.0000
  Zn  Zn2       1.0  0.11089549643712715  0.40977540090430464  0.5710099733650511  1.0000
  C   C40       1.0  0.018012238917631596  0.4055996470871026  0.8079255676432187  1.0000
  C   C41       1.0  0.018101338320204885  0.41582156527976055  0.3335376487770958  1.0000
  C   C42       1.0  0.018118445959610208  0.64790606709233  0.565579950589465  1.0000
  C   C43       1.0  0.017995067497958317  0.17351358559384744  0.5758833347261636  1.0000
  O   O5        1.0  0.0885557179294707  0.41685635214541983  0.38213483764188605  1.0000
  O   O6        1.0  0.08848426052619662  0.4031455102811623  0.7597506517419821  1.0000
  O   O7        1.0  0.08856907390972424  0.5988110187392885  0.56405484861924  1.0000
  O   O8        1.0  0.08847084120676207  0.2211908535894045  0.5778305432012227  1.0000
  O   O9        1.0  0.9476406446494954  0.6002287411341152  0.5636325393146131  1.0000
  O   O10       1.0  0.9475558316829565  0.4045647929958136  0.7593282733451798  1.0000
  O   O11       1.0  0.9476272894226868  0.4182755891855148  0.3817108978460786  1.0000
  O   O12       1.0  0.9475424126758797  0.2226100813665275  0.5774067007719594  1.0000
