data_image0
_chemical_formula_structural       NC9NC3OH6C7OC4NC3H9C6NCOC6H11Zn2C4O8
_chemical_formula_sum              "N4 C43 O11 H26 Zn2"
_cell_length_a       15.78231758774541
_cell_length_b       10.299371701877257
_cell_length_c       10.299662537453274
_cell_angle_alpha    85.55951811676593
_cell_angle_beta     90.07028812251602
_cell_angle_gamma    89.64160960478583

_space_group_name_H-M_alt    "P 1"
_space_group_IT_number       1

loop_
  _space_group_symop_operation_xyz
  'x, y, z'

loop_
  _atom_site_type_symbol
  _atom_site_label
  _atom_site_symmetry_multiplicity
  _atom_site_fract_x
  _atom_site_fract_y
  _atom_site_fract_z
  _atom_site_occupancy
  N   N1        1.0  0.7982412238078089  0.4137999998032347  0.570384787871933  1.0000
  C   C1        1.0  0.7496969367359498  0.33172742740570826  0.5944362459871355  1.0000
  C   C2        1.0  0.6894274045090792  0.22985541538992527  0.6242903021133497  1.0000
  C   C3        1.0  0.7090709054925233  0.10188778102658302  0.6617123965194829  1.0000
  C   C4        1.0  0.6323310643018487  0.039869628647430044  0.6799231607399068  1.0000
  C   C5        1.0  0.5705645314203392  0.13458030869441062  0.652267808884144  1.0000
  C   C6        1.0  0.4774709256880669  0.11706971780269138  0.6574726284924082  1.0000
  C   C7        1.0  0.4237418554567032  0.22443620537598896  0.6259567862651523  1.0000
  C   C8        1.0  0.33553321675704356  0.21007793802356844  0.6302317743768266  1.0000
  C   C9        1.0  0.2811081168258208  0.32056831227484106  0.5977907158074727  1.0000
  N   N2        1.0  0.2373632293117625  0.40938831844844126  0.5717110026211432  1.0000
  C   C10       1.0  0.3003723368976941  0.08819338239767949  0.6660715435497726  1.0000
  C   C11       1.0  0.3531705071417335  0.9810488704207511  0.6975265848259116  1.0000
  C   C12       1.0  0.4411934246389503  0.9950126936042611  0.6933677655793646  1.0000
  O   O1        1.0  0.6070397025539165  0.24682481145876323  0.6193951614615536  1.0000
  H   H1        1.0  0.7715248832614882  0.058732522602530146  0.6742816187391041  1.0000
  H   H2        1.0  0.623583706893193  0.937895557387814  0.7097590708641657  1.0000
  H   H3        1.0  0.4503614928962086  0.31928400329155027  0.5980623692646776  1.0000
  H   H4        1.0  0.23225422293272902  0.07603267687730564  0.6696901137092497  1.0000
  H   H5        1.0  0.3258206508042228  0.8868495011200757  0.7252307247176113  1.0000
  H   H6        1.0  0.48026718415420067  0.9101466916157113  0.7182906234745965  1.0000
  C   C13       1.0  0.01776196935114327  0.030224185025405026  0.5709207708733779  1.0000
  C   C14       1.0  0.02189985664606442  0.03957495064870531  0.4342687534734  1.0000
  C   C15       1.0  0.023024791145942025  0.9271319946350407  0.36527995987914763  1.0000
  C   C16       1.0  0.021910289256295012  0.8043064106047296  0.43458617997359683  1.0000
  C   C17       1.0  0.017850567934650785  0.7929540530567958  0.5711862497672009  1.0000
  C   C18       1.0  0.015576969787846506  0.9065168504660215  0.6385466745095842  1.0000
  C   C19       1.0  0.028283975181202514  0.9368530382054089  0.22104625633648922  1.0000
  O   O2        1.0  0.0690733966998931  0.8507171071698604  0.16622372900754034  1.0000
  C   C20       1.0  0.98725583761586  0.04420934227934947  0.13901038944832544  1.0000
  C   C21       1.0  0.023563357544478913  0.08853402719393166  0.01915010386639171  1.0000
  C   C22       1.0  0.9847694308012546  0.1888566500935407  0.9402423795750581  1.0000
  C   C23       1.0  0.022721079333323457  0.2343496912552432  0.8182009163709467  1.0000
  N   N3        1.0  0.05323251308586019  0.27091647722359147  0.7200972891319024  1.0000
  C   C24       1.0  0.909035545510747  0.2447808225156083  0.9801853845643476  1.0000
  C   C25       1.0  0.8720130214549199  0.20025334891558666  0.09830396575178768  1.0000
  C   C26       1.0  0.9105636683315183  0.10023064886926947  0.1771995577308012  1.0000
  H   H7        1.0  0.011256285515796716  0.21988006110641134  0.8288884149272946  1.0000
  H   H8        1.0  0.025201768054350815  0.13448541887814902  0.3813922478959837  1.0000
  H   H9        1.0  0.023405499792147344  0.7174738207935208  0.38157858199740824  1.0000
  H   H10       1.0  0.012387424584058504  0.8985041970192695  0.7438956411756827  1.0000
  H   H11       1.0  0.01700416460544818  0.46112539957973137  0.6237088181729373  1.0000
  H   H12       1.0  0.08232881670619041  0.04586437490622797  0.9877507793057907  1.0000
  H   H13       1.0  0.8784996746437805  0.3223265096134038  0.9198538407240524  1.0000
  H   H14       1.0  0.8131030600140753  0.24294107228577655  0.12854985091839644  1.0000
  H   H15       1.0  0.8799381639480353  0.06579450564099965  0.267263148680954  1.0000
  C   C27       1.0  0.017864610930972136  0.41172907007601145  0.18967775537591214  1.0000
  C   C28       1.0  0.10436314275074565  0.4432346883392082  0.18613626241447556  1.0000
  C   C29       1.0  0.14818615200719032  0.4572195216196202  0.06766896376031917  1.0000
  C   C30       1.0  0.10421484179823914  0.4429261043911452  0.9509924101407465  1.0000
  C   C31       1.0  0.01774794899200005  0.4114491726174778  0.9524292616376693  1.0000
  C   C32       1.0  0.9751333043353102  0.3955831052409713  0.07234192317109422  1.0000
  N   N4        1.0  0.2364233031404528  0.4914186870406958  0.0674640731874887  1.0000
  C   C33       1.0  0.29638682015929385  0.45096614581365335  0.9734183095880571  1.0000
  O   O3        1.0  0.2809212239523542  0.35256312293614966  0.9117858141117612  1.0000
  C   C34       1.0  0.3777464171852347  0.5204776053554829  0.9513380427182292  1.0000
  C   C35       1.0  0.3879834781518887  0.6484452553439952  0.9877673049494997  1.0000
  C   C36       1.0  0.4648590439074496  0.7132285845401454  0.9658316804215077  1.0000
  C   C37       1.0  0.5321137521780117  0.6515257710758571  0.9070387426959265  1.0000
  C   C38       1.0  0.5225644093198492  0.5249975979139407  0.8696060924626225  1.0000
  C   C39       1.0  0.44583325965096887  0.45975578481151835  0.8912129147553003  1.0000
  H   H16       1.0  0.8545043108518097  0.35350704166259006  0.40352843730221344  1.0000
  H   H17       1.0  0.1383127213527522  0.4561128092262079  0.2756637658794161  1.0000
  H   H18       1.0  0.13703497359371242  0.458560328399334  0.8589838807262464  1.0000
  H   H19       1.0  0.9084553621175839  0.3712788458286693  0.07420790509598274  1.0000
  H   H20       1.0  0.9843058799630817  0.40105809115122315  0.6254009593526546  1.0000
  H   H21       1.0  0.25955323052669854  0.5383902279932375  0.1464729328354577  1.0000
  H   H22       1.0  0.33650528611608643  0.6994977600828562  0.03140325964607715  1.0000
  H   H23       1.0  0.47215947947296844  0.8116349867999451  0.9940038264727766  1.0000
  H   H24       1.0  0.591531698416425  0.7019070614366822  0.890118402005962  1.0000
  H   H25       1.0  0.5746693028906777  0.47735611438814907  0.8237762380340108  1.0000
  H   H26       1.0  0.43998476385047836  0.3615574170760514  0.8616701937401743  1.0000
  Zn  Zn1       1.0  0.9249623438444152  0.4125234121260384  0.5707749971942537  1.0000
  Zn  Zn2       1.0  0.11064207792718728  0.41065430273125125  0.5713314061190506  1.0000
  C   C40       1.0  0.017767487624503975  0.40632841793555663  0.808251094254643  1.0000
  C   C41       1.0  0.01783896193485801  0.41685091508831085  0.33385544317372284  1.0000
  C   C42       1.0  0.017830249159957567  0.648783830938173  0.565960794514095  1.0000
  C   C43       1.0  0.0177761368480569  0.17439394239132966  0.5761458114211839  1.0000
  O   O4        1.0  0.08829484464568615  0.4178548700321172  0.38245394459324245  1.0000
  O   O5        1.0  0.08823822668929981  0.4039048726214114  0.7600745201408632  1.0000
  O   O6        1.0  0.08828795732127026  0.5996906939546416  0.5644233864798194  1.0000
  O   O7        1.0  0.08824505066977628  0.22206905866266546  0.5781049806912402  1.0000
  O   O8        1.0  0.9473593077384473  0.6011086568338753  0.564001422425358  1.0000
  O   O9        1.0  0.9473095772944445  0.4053243958342616  0.7596524873827832  1.0000
  O   O10       1.0  0.9473661955407991  0.4192743485612609  0.38203035039087885  1.0000
  O   O11       1.0  0.9473164015454493  0.22348852786728246  0.5776814838552171  1.0000
