data_image0
_chemical_formula_structural       NC9NC3OH6C7OC3NC3H11C6SCOC6H10Zn2C4O8
_chemical_formula_sum              "N3 C42 O11 H27 S1 Zn2"
_cell_length_a       15.78231758774541
_cell_length_b       10.298746005989749
_cell_length_c       10.302041481415108
_cell_angle_alpha    85.54475236709732
_cell_angle_beta     90.08006893222067
_cell_angle_gamma    89.64076015714048

_space_group_name_H-M_alt    "P 1"
_space_group_IT_number       1

loop_
  _space_group_symop_operation_xyz
  'x, y, z'

loop_
  _atom_site_type_symbol
  _atom_site_label
  _atom_site_symmetry_multiplicity
  _atom_site_fract_x
  _atom_site_fract_y
  _atom_site_fract_z
  _atom_site_occupancy
  N   N1        1.0  0.7980679470568179  0.41387700038521436  0.5703106627014949  1.0000
  C   C1        1.0  0.7495271597257414  0.3317982840000313  0.5943801509188982  1.0000
  C   C2        1.0  0.6892619715668635  0.22991864581207566  0.6242565867029908  1.0000
  C   C3        1.0  0.7089109205620533  0.10194142949449603  0.6617068120524316  1.0000
  C   C4        1.0  0.6321737279881059  0.039918635440425954  0.6799311922736797  1.0000
  C   C5        1.0  0.5704031675485599  0.13463640840141022  0.6522550106902636  1.0000
  C   C6        1.0  0.4773103166630884  0.11712450874193259  0.6574636600336266  1.0000
  C   C7        1.0  0.42357666232309493  0.22449903233992718  0.6259242431186802  1.0000
  C   C8        1.0  0.33536864337664535  0.21013969203248828  0.6302023698543091  1.0000
  C   C9        1.0  0.2809388250420101  0.3206383358867937  0.5977370525992671  1.0000
  N   N2        1.0  0.23719014439707153  0.40946498971777734  0.5716378388591803  1.0000
  C   C10       1.0  0.30021297442807265  0.08824601552403877  0.6660688869534896  1.0000
  C   C11       1.0  0.35301571978813734  0.9810934842602901  0.6975474531629822  1.0000
  C   C12       1.0  0.4410380344162063  0.995058350886936  0.693385581811613  1.0000
  O   O1        1.0  0.6068735546558912  0.24688931442568784  0.6193577000212924  1.0000
  H   H1        1.0  0.7713667299368446  0.058782938248995054  0.6742855328731332  1.0000
  H   H2        1.0  0.6234307136516151  0.937936929003567  0.709789515668696  1.0000
  H   H3        1.0  0.45019224422456866  0.3193539277854225  0.5980090125879862  1.0000
  H   H4        1.0  0.23209538512564343  0.07608440120629956  0.6696901158584898  1.0000
  H   H5        1.0  0.32566989131003854  0.886887065964097  0.725272264194194  1.0000
  H   H6        1.0  0.48011541866369445  0.9101859972925499  0.7183270711901872  1.0000
  C   C13       1.0  0.017592599245647156  0.030269293528736307  0.5709569665621301  1.0000
  C   C14       1.0  0.057234703067720716  0.03842058224023637  0.4485998105955933  1.0000
  C   C15       1.0  0.07638870091860661  0.9254280929812986  0.3860385745726811  1.0000
  C   C16       1.0  0.05723534040456135  0.803183992785375  0.44855068637257745  1.0000
  C   C17       1.0  0.01767356308744139  0.7930626562192347  0.5710027557166943  1.0000
  C   C18       1.0  0.9978992749645774  0.9071708924745383  0.6312738451111839  1.0000
  C   C19       1.0  0.11897056240931847  0.9338368464312486  0.25738044714245656  1.0000
  O   O2        1.0  0.17070622499656563  0.8453480000303216  0.23233017112333432  1.0000
  C   C20       1.0  0.10286337472977158  0.04257182184082797  0.15714839960592175  1.0000
  C   C21       1.0  0.022631963776085895  0.1027743087036288  0.14480116632118611  1.0000
  C   C22       1.0  0.007788348114898813  0.20462843757212856  0.04887087810733193  1.0000
  N   N3        1.0  0.9262005324956725  0.2656864274512334  0.037422720218027505  1.0000
  C   C23       1.0  0.07322860855416669  0.24588759328212828  0.9639534714135398  1.0000
  C   C24       1.0  0.1526866697183653  0.18552876934101725  0.9744427098211141  1.0000
  C   C25       1.0  0.167464391032228  0.08409988431228688  0.07006865880453939  1.0000
  H   H7        1.0  0.9438635269956447  0.22215043598464423  0.803017911050065  1.0000
  H   H8        1.0  0.0740865776754569  0.13278442497810827  0.40243925540609315  1.0000
  H   H9        1.0  0.07251878370870513  0.7158557395000991  0.4009096380458672  1.0000
  H   H10       1.0  0.967346546897533  0.9001356012971724  0.725590961671345  1.0000
  H   H11       1.0  0.9432403712618531  0.5666170694401019  0.8025731554090143  1.0000
  H   H12       1.0  0.9713171569685891  0.06986314882205269  0.20859442301087805  1.0000
  H   H13       1.0  0.8769670231009621  0.23570475972440286  0.10021103130227638  1.0000
  H   H14       1.0  0.9144489106961617  0.3414450733203904  0.9661647111966727  1.0000
  H   H15       1.0  0.06255355580699073  0.32437276487974565  0.8894506981039481  1.0000
  H   H16       1.0  0.20296340586540595  0.21741557763869745  0.9083145265117682  1.0000
  H   H17       1.0  0.2296072980235413  0.0388312734930667  0.07678256986009813  1.0000
  C   C26       1.0  0.01764898727678288  0.41179508534317755  0.18969289393124855  1.0000
  C   C27       1.0  0.056506769200802553  0.5345135973636141  0.17890471354380288  1.0000
  C   C28       1.0  0.07621803688131878  0.5950468443681514  0.05658260296739881  1.0000
  C   C29       1.0  0.0565871430112066  0.5341088927904756  0.9437995204030689  1.0000
  C   C30       1.0  0.017617212781367853  0.4115368236710919  0.952266873363762  1.0000
  C   C31       1.0  0.9984123755828216  0.3509599296647632  0.07578393875542933  1.0000
  S   S1        1.0  0.12661428547834563  0.7510867668397017  0.044221732283502346  1.0000
  C   C32       1.0  0.2309836014883302  0.6802314705478427  0.04710141048026806  1.0000
  O   O3        1.0  0.2641410938991535  0.6567235920507166  0.9401399727285469  1.0000
  C   C33       1.0  0.27768339193406444  0.6484169019118147  0.1707651877898242  1.0000
  C   C34       1.0  0.35284158057978865  0.5739320977846336  0.17118020743304618  1.0000
  C   C35       1.0  0.39700068832324287  0.5425890303967815  0.2872638982402218  1.0000
  C   C36       1.0  0.36690097400088084  0.5852425926574505  0.4041130290942838  1.0000
  C   C37       1.0  0.2926534475969491  0.6595594227004073  0.40508101905548655  1.0000
  C   C38       1.0  0.2482414714389154  0.6912791973634664  0.2892959923362133  1.0000
  H   H18       1.0  0.9442818970784309  0.1806065487141395  0.41733471343742723  1.0000
  H   H19       1.0  0.07173325345317405  0.583292569047811  0.26526798915357874  1.0000
  H   H20       1.0  0.07217273278186709  0.5825526978270641  0.8498781613882196  1.0000
  H   H21       1.0  0.9684577623765253  0.2563524646496482  0.08318030808698529  1.0000
  H   H22       1.0  0.0030321932828509812  0.3647627197954013  0.6281607255659107  1.0000
  H   H23       1.0  0.37731334851684983  0.5392253774900897  0.08193345801900898  1.0000
  H   H24       1.0  0.4545913874579841  0.48502105267040063  0.28658753429079287  1.0000
  H   H25       1.0  0.40116171918456467  0.560845133759196  0.4938772077056046  1.0000
  H   H26       1.0  0.2694972374516582  0.6928657688150603  0.4956856996867829  1.0000
  H   H27       1.0  0.19129388321038343  0.7497828509441844  0.29320161474514883  1.0000
  Zn  Zn1       1.0  0.9247891233218605  0.41260031759951343  0.5707011487201819  1.0000
  Zn  Zn2       1.0  0.11046893807147184  0.41073106852849217  0.5712579662420845  1.0000
  C   C39       1.0  0.017620757191948  0.4064115530102441  0.8081237208915719  1.0000
  C   C40       1.0  0.0176393319878394  0.41692145142275394  0.3338355276885907  1.0000
  C   C41       1.0  0.017654123353047835  0.648880252720456  0.5658200391480999  1.0000
  C   C42       1.0  0.017605902298658993  0.17445119189038172  0.5761392783721142  1.0000
  O   O4        1.0  0.088100613002148  0.4179268702002812  0.3824224213442189  1.0000
  O   O5        1.0  0.08808615914571072  0.4039864377592344  0.7599590650266423  1.0000
  O   O6        1.0  0.08811215279100959  0.5997829883159096  0.5642971249125392  1.0000
  O   O7        1.0  0.08807455600195202  0.2221303296054422  0.5780842639151296  1.0000
  O   O8        1.0  0.9471834420279728  0.6012010571618627  0.5638748508502927  1.0000
  O   O9        1.0  0.9471574485473471  0.40540606706664706  0.7595367218275004  1.0000
  O   O10       1.0  0.9471719025204322  0.41934645477592114  0.38199851707732324  1.0000
  O   O11       1.0  0.9471458455117259  0.2235499048585452  0.5776604569945825  1.0000
