data_image0
_chemical_formula_structural       NC9NC3OH6C7OC3OC4H12C7OC6H10Zn2C4O8
_chemical_formula_sum              "N2 C43 O12 H28 Zn2"
_cell_length_a       15.78231758774541
_cell_length_b       10.299371110280156
_cell_length_c       10.299382801718286
_cell_angle_alpha    85.58971110706742
_cell_angle_beta     90.06446718373022
_cell_angle_gamma    89.64456115777638

_space_group_name_H-M_alt    "P 1"
_space_group_IT_number       1

loop_
  _space_group_symop_operation_xyz
  'x, y, z'

loop_
  _atom_site_type_symbol
  _atom_site_label
  _atom_site_symmetry_multiplicity
  _atom_site_fract_x
  _atom_site_fract_y
  _atom_site_fract_z
  _atom_site_occupancy
  N   N1        1.0  0.7983867851141251  0.41300084109461066  0.5703630027029516  1.0000
  C   C1        1.0  0.7498380915817943  0.3309415860783176  0.5944166845276395  1.0000
  C   C2        1.0  0.6895630898423498  0.2290861043663417  0.6242735008121496  1.0000
  C   C3        1.0  0.7091997256855754  0.10113919016578898  0.6616990637131404  1.0000
  C   C4        1.0  0.6324565522636239  0.03913112142474473  0.6799115076897067  1.0000
  C   C5        1.0  0.5706950975389964  0.13382648934523722  0.6522535880795444  1.0000
  C   C6        1.0  0.4776005466362707  0.11631878092844472  0.6574588809341828  1.0000
  C   C7        1.0  0.42387724445647007  0.2236678176756468  0.6259401305189767  1.0000
  C   C8        1.0  0.3356678302483422  0.20931191790195358  0.630215506564896  1.0000
  C   C9        1.0  0.2812486667589923  0.31978432895861686  0.5977714553264462  1.0000
  N   N2        1.0  0.2375085514666436  0.40858989431878423  0.5716893364412072  1.0000
  C   C10       1.0  0.3005003981046008  0.08744720779423676  0.6660585761554254  1.0000
  C   C11       1.0  0.3532928119233842  0.9803201130093971  0.6975165195360684  1.0000
  C   C12       1.0  0.441316483711883  0.9942816329416119  0.6933573230331347  1.0000
  O   O1        1.0  0.6071762936360638  0.2460527905579024  0.6193778991189538  1.0000
  H   H1        1.0  0.771651391772203  0.057990890788465865  0.6742694564605021  1.0000
  H   H2        1.0  0.623703723159639  0.9371735700628767  0.709750181519442  1.0000
  H   H3        1.0  0.4505019810590364  0.3185001696095382  0.5980431452851858  1.0000
  H   H4        1.0  0.23238162746991192  0.07528850629887462  0.6696774749095622  1.0000
  H   H5        1.0  0.3259378912542713  0.8861360843313555  0.7252232100964211  1.0000
  H   H6        1.0  0.48038568316684854  0.909429431225398  0.718282479465362  1.0000
  C   C13       1.0  0.017894611482919265  0.029424488383839487  0.5709111988402493  1.0000
  C   C14       1.0  0.008162201020574411  0.03878625287547832  0.43489833856882676  1.0000
  C   C15       1.0  0.0022963007117677847  0.9263307923003341  0.3664625115982516  1.0000
  C   C16       1.0  0.008204189429844577  0.8035180038569267  0.43520954760968267  1.0000
  C   C17       1.0  0.018008814303929643  0.7921562036775993  0.5711523931249713  1.0000
  C   C18       1.0  0.02257544312860804  0.905709247582561  0.6382536088572255  1.0000
  C   C19       1.0  0.9929032296662467  0.936079227817647  0.22268885454870468  1.0000
  O   O2        1.0  0.027650718168675814  0.850680449053646  0.15877163591877164  1.0000
  C   C20       1.0  0.9440814553816567  0.04262655339267729  0.15143141568755025  1.0000
  C   C21       1.0  0.9677935214357182  0.08752660951167535  0.024362014950027877  1.0000
  C   C22       1.0  0.9219784481826325  0.18698820609174827  0.9548436753498297  1.0000
  O   O3        1.0  0.9490586589660919  0.22850196572891623  0.8288291456412429  1.0000
  C   C23       1.0  0.9086878332375279  0.3283786322502298  0.7472732058775735  1.0000
  C   C24       1.0  0.8508877587601483  0.24157112635956546  0.013116337287747415  1.0000
  C   C25       1.0  0.8263061258500308  0.1963897067725946  0.13866607097476158  1.0000
  C   C26       1.0  0.8722717316957722  0.097207769964621  0.207432696721354  1.0000
  H   H7        1.0  0.037553741057398726  0.21908428403768831  0.8273604433640522  1.0000
  H   H8        1.0  0.0060759566469743564  0.1337325727250469  0.38186296121493224  1.0000
  H   H9        1.0  0.004320178344145775  0.7166876516100004  0.38247600491015454  1.0000
  H   H10       1.0  0.030078963838613415  0.8976882064117142  0.7431095598001412  1.0000
  H   H11       1.0  0.02248012616254491  0.46033711206723904  0.6232521346548425  1.0000
  H   H12       1.0  0.022587823413597885  0.04607241372506521  0.9791552205693397  1.0000
  H   H13       1.0  0.9432731125650486  0.3411063401882206  0.6535079149262808  1.0000
  H   H14       1.0  0.9099256867656877  0.42183093435482366  0.7942954361137029  1.0000
  H   H15       1.0  0.8422895990295274  0.30080888666312955  0.7273086775680611  1.0000
  H   H16       1.0  0.8140948053741323  0.3184312367341482  0.9621173545603323  1.0000
  H   H17       1.0  0.7711918603679804  0.23800831234826658  0.18265018151233314  1.0000
  H   H18       1.0  0.8511132770874351  0.06228853063137074  0.3037463028411087  1.0000
  C   C27       1.0  0.018036221103290062  0.41071626736849587  0.18966223105031488  1.0000
  C   C28       1.0  0.10705261607109584  0.4106855771183746  0.1886277142627384  1.0000
  C   C29       1.0  0.15194973859691685  0.4091820145236069  0.07104734724709028  1.0000
  C   C30       1.0  0.10684614400591852  0.410715688002508  0.9533815307988123  1.0000
  C   C31       1.0  0.01786716279941558  0.41086442188291494  0.952401300827296  1.0000
  C   C32       1.0  0.9739782905559309  0.4105191257257734  0.07110892613527064  1.0000
  C   C33       1.0  0.245939688142071  0.41053356795163465  0.06970346806015959  1.0000
  O   O4        1.0  0.28328204247876143  0.47086767696958676  0.9753085721008325  1.0000
  C   C34       1.0  0.29756681304799737  0.34343141733310256  0.17534454209114747  1.0000
  C   C35       1.0  0.37721552381514023  0.39309142345271053  0.2067024650073841  1.0000
  C   C36       1.0  0.42677667860142243  0.3296593605591527  0.3050866965210768  1.0000
  C   C37       1.0  0.39772663727649804  0.21564696147803586  0.372326798572997  1.0000
  C   C38       1.0  0.31920128055048114  0.1645287004886251  0.34094879279307944  1.0000
  C   C39       1.0  0.26939869333048616  0.22758447410430915  0.24266577317799354  1.0000
  H   H19       1.0  0.8500492597954826  0.412785886689109  0.39877969871843  1.0000
  H   H20       1.0  0.141571791679028  0.4132893262615849  0.2793317522786205  1.0000
  H   H21       1.0  0.14137360169074165  0.4105402140577761  0.8625343892915582  1.0000
  H   H22       1.0  0.9053533571102981  0.4105435843079306  0.07110222558550627  1.0000
  H   H23       1.0  0.9836855281645801  0.41202654104831793  0.6244832783778191  1.0000
  H   H24       1.0  0.4007527827422419  0.48152852547161973  0.15586607965777022  1.0000
  H   H25       1.0  0.48777458353859404  0.36893060864472615  0.32915622126672095  1.0000
  H   H26       1.0  0.436210522575909  0.16663286346546724  0.4483710749231382  1.0000
  H   H27       1.0  0.2970431499318966  0.0756218340640511  0.3924179617006378  1.0000
  H   H28       1.0  0.20941772022140093  0.18502082403108222  0.21841206235876043  1.0000
  Zn  Zn1       1.0  0.9251078355061791  0.4117244695979143  0.5707532463516443  1.0000
  Zn  Zn2       1.0  0.11078746864241262  0.4098556683534529  0.5713097057779066  1.0000
  C   C40       1.0  0.01789647917194248  0.40566272514126767  0.8082256765963822  1.0000
  C   C41       1.0  0.018000852809553436  0.41591903105547656  0.33383740959448827  1.0000
  C   C42       1.0  0.017984005912372814  0.6479827034432066  0.5659315940539706  1.0000
  C   C43       1.0  0.017913262460693247  0.1735974930942059  0.5761315606923947  1.0000
  O   O5        1.0  0.08845343513647896  0.41695025997365476  0.38243508823116823  1.0000
  O   O6        1.0  0.08837044199732746  0.40321213951959134  0.7600499636321878  1.0000
  O   O7        1.0  0.0884401707533704  0.5988885963754413  0.5643957752885831  1.0000
  O   O8        1.0  0.08838364304352364  0.22127381302685545  0.5780891790129967  1.0000
  O   O9        1.0  0.9475115977417238  0.600306325563654  0.5639737729198311  1.0000
  O   O10       1.0  0.9474418692307658  0.404631429006278  0.7596278925112185  1.0000
  O   O11       1.0  0.9475248627655075  0.41836950390030947  0.3820114556927461  1.0000
  O   O12       1.0  0.94745507064612  0.22269304768360176  0.5776656438396284  1.0000
