data_image0
_chemical_formula_structural       NC9NC3OH6C6NCOC6H11C7OC3FC3H9Zn2C4O8
_chemical_formula_sum              "N3 C42 O11 H26 F1 Zn2"
_cell_length_a       15.78231758774541
_cell_length_b       10.29965916528486
_cell_length_c       10.29938172300155
_cell_angle_alpha    85.59399439143571
_cell_angle_beta     90.06753164669173
_cell_angle_gamma    89.64856781770791

_space_group_name_H-M_alt    "P 1"
_space_group_IT_number       1

loop_
  _space_group_symop_operation_xyz
  'x, y, z'

loop_
  _atom_site_type_symbol
  _atom_site_label
  _atom_site_symmetry_multiplicity
  _atom_site_fract_x
  _atom_site_fract_y
  _atom_site_fract_z
  _atom_site_occupancy
  N   N1        1.0  0.7984017950950337  0.4128563567646011  0.5703734655874826  1.0000
  C   C1        1.0  0.7498501889813388  0.33080119647885553  0.5944268602151228  1.0000
  C   C2        1.0  0.6895715720325831  0.22895079734832602  0.6242833200163824  1.0000
  C   C3        1.0  0.709203663841428  0.10101026190451878  0.6617084355484173  1.0000
  C   C4        1.0  0.6324582907832517  0.03900528998936981  0.6799206623074205  1.0000
  C   C5        1.0  0.5707002005931133  0.13369593990688666  0.652263073577201  1.0000
  C   C6        1.0  0.47760503081602956  0.11618911046144276  0.6574683047586072  1.0000
  C   C7        1.0  0.4238855370449255  0.2235327867391732  0.6259499303339471  1.0000
  C   C8        1.0  0.3356756156225412  0.20917760822253362  0.6302252557703885  1.0000
  C   C9        1.0  0.2812603710640502  0.3196445022433738  0.5977815915069296  1.0000
  N   N2        1.0  0.23752340604193073  0.4084456325247432  0.5716997837066526  1.0000
  C   C10       1.0  0.300503862257902  0.0873189879676628  0.6660678981902455  1.0000
  C   C11       1.0  0.3532924756925953  0.9801972428870677  0.6975254663340191  1.0000
  C   C12       1.0  0.4413166407173325  0.9941580612836655  0.6933663190571504  1.0000
  O   O1        1.0  0.6071853807271822  0.24591664257334678  0.6193877772818714  1.0000
  H   H1        1.0  0.7716537957563975  0.05786410996866209  0.6742786777031962  1.0000
  H   H2        1.0  0.6237018411838197  0.9370528228008722  0.7097589795578234  1.0000
  H   H3        1.0  0.4505136361601196  0.318360399343786  0.5980532775403369  1.0000
  H   H4        1.0  0.23238466196561933  0.07516089718492491  0.6696867540923173  1.0000
  H   H5        1.0  0.3259342155133995  0.8860179211686464  0.7252318267246236  1.0000
  H   H6        1.0  0.4803828302860473  0.9093100975109214  0.7182911782305275  1.0000
  C   C13       1.0  0.017892134742445664  0.02929099330076146  0.5709209272112159  1.0000
  C   C14       1.0  0.018493734572374132  0.03853052151784864  0.43410918949855803  1.0000
  C   C15       1.0  0.02004622911141074  0.9263365689366831  0.36527951000178827  1.0000
  C   C16       1.0  0.018653324057257503  0.803338702366176  0.4344060505345859  1.0000
  C   C17       1.0  0.01804113326253054  0.7920009081125903  0.5711635336218053  1.0000
  C   C18       1.0  0.017962151326197162  0.9055816849162305  0.6386499584699257  1.0000
  N   N3        1.0  0.019359645501023426  0.9393800472009183  0.22521380122957768  1.0000
  C   C19       1.0  0.059092397582178435  0.8478314812607419  0.14560911870928162  1.0000
  O   O2        1.0  0.1175354813388434  0.7744379448736862  0.19276284032299573  1.0000
  C   C20       1.0  0.0344899497855935  0.8418462449551716  0.007171055174487684  1.0000
  C   C21       1.0  0.9561490987040389  0.8924784601365398  0.9605895010103351  1.0000
  C   C22       1.0  0.9334687097693618  0.8856592030876174  0.8300007107237879  1.0000
  C   C23       1.0  0.9883401622931947  0.8279990122965473  0.7447113610299687  1.0000
  C   C24       1.0  0.06593538318849768  0.776586410084459  0.7899144687136839  1.0000
  C   C25       1.0  0.088939260356524  0.7830460584004875  0.9203997633542098  1.0000
  H   H7        1.0  0.015948590842705057  0.21913425470632797  0.8289892776817971  1.0000
  H   H8        1.0  0.01840636448548172  0.13312680856112724  0.38028691540953097  1.0000
  H   H9        1.0  0.01655901952241967  0.7165555082227868  0.3815953568674286  1.0000
  H   H10       1.0  0.017509715580161123  0.8975935495179863  0.7441164037452699  1.0000
  H   H11       1.0  0.016679028711037658  0.46021397125396035  0.623619944773786  1.0000
  H   H12       1.0  0.995192100096833  0.025743880461539526  0.17920122664728333  1.0000
  H   H13       1.0  0.9117359111519714  0.9356380148785425  0.02493651982019096  1.0000
  H   H14       1.0  0.873089638788279  0.9246900195009425  0.7950332458830283  1.0000
  H   H15       1.0  0.9706149100764787  0.8227937129430041  0.643702198935165  1.0000
  H   H16       1.0  0.10834412157848128  0.731650759854701  0.7237977092019223  1.0000
  H   H17       1.0  0.14953092952921887  0.7428264146465156  0.9531492032879645  1.0000
  C   C26       1.0  0.018037951580027523  0.41054411401196367  0.18967475815742652  1.0000
  C   C27       1.0  0.04482631560319339  0.27982365924479535  0.19857548926049096  1.0000
  C   C28       1.0  0.05925823323657031  0.21433885018882237  0.08585892605967338  1.0000
  C   C29       1.0  0.044745332295194507  0.2801175998554759  0.963309287718868  1.0000
  C   C30       1.0  0.017895300538963488  0.41074778775809007  0.9524097470754049  1.0000
  C   C31       1.0  0.004910572342588626  0.4753069509328973  0.06618308133126694  1.0000
  C   C32       1.0  0.08668722326665801  0.07589816357969026  0.09514319508970526  1.0000
  O   O3        1.0  0.060575587860829616  0.002918065815518567  0.010859815122776784  1.0000
  C   C33       1.0  0.14374433928509744  0.020253256049024948  0.19994325621603704  1.0000
  C   C34       1.0  0.13689275346880603  0.8883643456008388  0.2451538107295057  1.0000
  C   C35       1.0  0.19106377038141642  0.8346143600033177  0.34285700181002654  1.0000
  F   F1        1.0  0.18353574436986175  0.7076258028234954  0.386462717932607  1.0000
  C   C36       1.0  0.2529624305201361  0.911614372898102  0.3955365286285053  1.0000
  C   C37       1.0  0.2610339877752088  0.04228561001329245  0.3502642176888451  1.0000
  C   C38       1.0  0.2070310733372509  0.09644566772504515  0.2526326409421693  1.0000
  H   H18       1.0  0.966240232880459  0.6566287643916047  0.380241669710492  1.0000
  H   H19       1.0  0.05359467030759624  0.22834633116025826  0.293391245409806  1.0000
  H   H20       1.0  0.05523758177819493  0.22946392260238047  0.8762991213510909  1.0000
  H   H21       1.0  0.984258342106256  0.5760823836388873  0.05851722423403927  1.0000
  H   H22       1.0  0.00689778888535697  0.46059828045513496  0.6207901620206124  1.0000
  H   H23       1.0  0.08914841681241259  0.8273290969546215  0.20561712713448665  1.0000
  H   H24       1.0  0.2949239778818864  0.8699854406144533  0.471066866617297  1.0000
  H   H25       1.0  0.3094428456958018  0.10156648770444865  0.3904412774170003  1.0000
  H   H26       1.0  0.21538140237321501  0.1973183181422551  0.2174291943969826  1.0000
  Zn  Zn1       1.0  0.9251228007414257  0.4115800501317841  0.5707637046815204  1.0000
  Zn  Zn2       1.0  0.11080236784700626  0.4097113427712016  0.5713201575201288  1.0000
  C   C39       1.0  0.017919386174334084  0.4055357786941478  0.8082348330330313  1.0000
  C   C40       1.0  0.018007810325495477  0.4157572324177876  0.33384916323229574  1.0000
  C   C41       1.0  0.018009586655793886  0.647831188649906  0.5659425291610165  1.0000
  C   C42       1.0  0.017917546166798415  0.1734602628522135  0.5761415356564581  1.0000
  O   O4        1.0  0.08846212157760203  0.416791972264245  0.38244657977483465  1.0000
  O   O5        1.0  0.08839156990113461  0.40308175340059593  0.7600593771632647  1.0000
  O   O6        1.0  0.08846345778395737  0.5987383711040841  0.5644066251111961  1.0000
  O   O7        1.0  0.08839017035494345  0.22113536446241788  0.5780992342656759  1.0000
  O   O8        1.0  0.9475349348701668  0.6001560290796779  0.5639846277392526  1.0000
  O   O9        1.0  0.9474630473012593  0.4045009716251158  0.7596373110424528  1.0000
  O   O10       1.0  0.9475335993171997  0.4182111448162833  0.38202295224496785  1.0000
  O   O11       1.0  0.9474616480710554  0.2225545277519052  0.5776757041003155  1.0000
