data_image0
_chemical_formula_structural       NC9NC3OH6C7OC6OCH12C6NCOC6H11Zn2C4O8
_chemical_formula_sum              "N3 C43 O12 H29 Zn2"
_cell_length_a       15.78231758774541
_cell_length_b       10.299359160628079
_cell_length_c       10.299662537453274
_cell_angle_alpha    85.5452158657264
_cell_angle_beta     90.07028812251602
_cell_angle_gamma    89.65438836023732

_space_group_name_H-M_alt    "P 1"
_space_group_IT_number       1

loop_
  _space_group_symop_operation_xyz
  'x, y, z'

loop_
  _atom_site_type_symbol
  _atom_site_label
  _atom_site_symmetry_multiplicity
  _atom_site_fract_x
  _atom_site_fract_y
  _atom_site_fract_z
  _atom_site_occupancy
  N   N1        1.0  0.7984466122759322  0.41382719671941914  0.5700313532833716  1.0000
  C   C1        1.0  0.7498904021881427  0.3317530455123916  0.5941033286470261  1.0000
  C   C2        1.0  0.6896060706003335  0.2298790738102512  0.6239828516657695  1.0000
  C   C3        1.0  0.7092309812057925  0.10190897776560504  0.6614369365855588  1.0000
  C   C4        1.0  0.6324821303862352  0.03988963235880161  0.6796632046680366  1.0000
  C   C5        1.0  0.5707293565098838  0.13460213433139234  0.6519841761746739  1.0000
  C   C6        1.0  0.47763320694295325  0.11709120659282557  0.6571933732397834  1.0000
  C   C7        1.0  0.42391973427730845  0.22445975954832975  0.6256506905610022  1.0000
  C   C8        1.0  0.3357090096938343  0.21010121598951947  0.6299292680830002  1.0000
  C   C9        1.0  0.281299961148036  0.32059371571642425  0.5974605881245039  1.0000
  N   N2        1.0  0.2375679768770171  0.4094154304982176  0.5713586709048297  1.0000
  C   C10       1.0  0.3005304231700548  0.08821431570098826  0.6657995070662273  1.0000
  C   C11       1.0  0.3533130280956716  0.981067742611942  0.6972813333024117  1.0000
  C   C12       1.0  0.44133797417419623  0.995031834414018  0.6931190232522844  1.0000
  O   O1        1.0  0.6072208338582588  0.24684879631510692  0.6190834688499347  1.0000
  H   H1        1.0  0.7716786896350909  0.058752889174663814  0.6740169471493638  1.0000
  H   H2        1.0  0.6237199587900795  0.9379135994495394  0.7095246071985235  1.0000
  H   H3        1.0  0.45055315064164164  0.31930938202720327  0.597732562644955  1.0000
  H   H4        1.0  0.23241054257000804  0.07605337624817077  0.6694211172695246  1.0000
  H   H5        1.0  0.32594948703319176  0.886866561221613  0.725009022009599  1.0000
  H   H6        1.0  0.4803994048606544  0.9101641998794622  0.7180630967229149  1.0000
  C   C13       1.0  0.017911634202759652  0.0302440031897957  0.5706632260572717  1.0000
  C   C14       1.0  0.9478416718084793  0.036260129215241355  0.4860533883056397  1.0000
  C   C15       1.0  0.9131078744824946  0.9223041977328461  0.44228718603658135  1.0000
  C   C16       1.0  0.9480434618521442  0.800996494428155  0.48630910779184244  1.0000
  C   C17       1.0  0.018111044868025727  0.7929885195841737  0.5707380761751764  1.0000
  C   C18       1.0  0.05275866289520814  0.9082017222017483  0.6122184646249214  1.0000
  C   C19       1.0  0.8385322390595634  0.9307986042564178  0.35412714827122005  1.0000
  O   O2        1.0  0.7846851334807823  0.020207996856681065  0.3655310686124371  1.0000
  C   C20       1.0  0.8250408973680108  0.8379336103647276  0.25303757285038464  1.0000
  C   C21       1.0  0.8939690904970187  0.7839159677004509  0.18918992502365284  1.0000
  C   C22       1.0  0.8803649116966082  0.6977015603147502  0.09306576403666988  1.0000
  C   C23       1.0  0.7980561235508234  0.6646270358608062  0.05805382630265421  1.0000
  C   C24       1.0  0.7288429297024743  0.7196828030419427  0.1205888368780772  1.0000
  C   C25       1.0  0.7423696215836537  0.8059568610952799  0.21675918573644637  1.0000
  O   O3        1.0  0.7878085529740022  0.5775388175135745  0.9611233071408525  1.0000
  C   C26       1.0  0.707966869685423  0.5355131280708584  0.916013319186102  1.0000
  H   H7        1.0  0.14991206210486197  0.22613154086131027  0.7307395456246863  1.0000
  H   H8        1.0  0.9205966918162242  0.12987411156843187  0.4529858285614301  1.0000
  H   H9        1.0  0.9199197810503619  0.7126531486614431  0.4557722494054066  1.0000
  H   H10       1.0  0.106808332455685  0.9027565382718977  0.6773514001036023  1.0000
  H   H11       1.0  0.04477272017113698  0.46241314595377664  0.6035372038436482  1.0000
  H   H12       1.0  0.9583840168703457  0.809348245862124  0.21251604479993036  1.0000
  H   H13       1.0  0.9341463674544813  0.6567313782667054  0.045046444714798684  1.0000
  H   H14       1.0  0.6643928464969074  0.6965284774324131  0.09561797408453465  1.0000
  H   H15       1.0  0.6881147754303242  0.8468863944808123  0.2637262994602423  1.0000
  H   H16       1.0  0.7185555920088808  0.4670396346909061  0.8395695272933987  1.0000
  H   H17       1.0  0.6707416610693262  0.6202511086321173  0.8733902282395989  1.0000
  H   H18       1.0  0.6723859956171632  0.4842710350068932  0.9974425411852761  1.0000
  C   C27       1.0  0.0180696985467228  0.4117562271542401  0.18932483849720794  1.0000
  C   C28       1.0  0.10457280731562135  0.44326245148311805  0.18577546947463874  1.0000
  C   C29       1.0  0.1483978482055961  0.4572475537862619  0.067304674764606  1.0000
  C   C30       1.0  0.10442446153387142  0.44295386159890304  0.950631694343532  1.0000
  C   C31       1.0  0.017952995945910377  0.41147632431138925  0.952076414730278  1.0000
  C   C32       1.0  0.9753360463611721  0.3956099517233218  0.07199304260759698  1.0000
  N   N3        1.0  0.23663996759051953  0.49144737708810915  0.06709123477321488  1.0000
  C   C33       1.0  0.2965976079043986  0.4509940576856717  0.9730555838681298  1.0000
  O   O4        1.0  0.2811177162906613  0.3525891418538849  0.9114476880748921  1.0000
  C   C34       1.0  0.3779673031423878  0.5205068544020235  0.9509579398911394  1.0000
  C   C35       1.0  0.3882229544892968  0.6484769660721392  0.987355211604847  1.0000
  C   C36       1.0  0.4651079315822073  0.7132615414889534  0.9654033919507392  1.0000
  C   C37       1.0  0.5323536760344512  0.6515575410631107  0.9066258792559205  1.0000
  C   C38       1.0  0.5227859519146789  0.5250269339104452  0.8692248596866632  1.0000
  C   C39       1.0  0.44604532430262966  0.45978386576761876  0.8908479917214365  1.0000
  H   H19       1.0  0.8547009403170237  0.35353307873825335  0.40319007529595297  1.0000
  H   H20       1.0  0.13852425677455327  0.45614082010330037  0.2752997535497377  1.0000
  H   H21       1.0  0.137246864576565  0.4585883863587392  0.8586192565434545  1.0000
  H   H22       1.0  0.9086545733649697  0.37130522477607375  0.07386510033240534  1.0000
  H   H23       1.0  0.9845094173623837  0.4010850429545054  0.6250507101023604  1.0000
  H   H24       1.0  0.25977671872329444  0.5384198216204097  0.14608835204796744  1.0000
  H   H25       1.0  0.3367521790582073  0.6995304528952366  0.030978403731747317  1.0000
  H   H26       1.0  0.4724226630454602  0.8116698367680448  0.99355093747414  1.0000
  H   H27       1.0  0.5917789413675392  0.701939800596189  0.8896929437925571  1.0000
  H   H28       1.0  0.5748839244136998  0.47738453391737745  0.8234069151096084  1.0000
  H   H29       1.0  0.44018256282642554  0.3615836090147686  0.8613298192278154  1.0000
  Zn  Zn1       1.0  0.9251675468574617  0.4125505844848256  0.5704218817386957  1.0000
  Zn  Zn2       1.0  0.11084700940712056  0.41068143913444977  0.5709787579204668  1.0000
  C   C40       1.0  0.017971790665582965  0.40635547112279347  0.8078995274801033  1.0000
  C   C41       1.0  0.018044793621835753  0.4168781706941884  0.3335012458895974  1.0000
  C   C42       1.0  0.018069774683616924  0.6488155481794116  0.5655486165292349  1.0000
  C   C43       1.0  0.017946745825871302  0.174416533913202  0.5758522257372853  1.0000
  O   O5        1.0  0.08850082218127642  0.4178821449508241  0.3820994963313247  1.0000
  O   O6        1.0  0.08844217765210804  0.40393187918751505  0.7597235592262337  1.0000
  O   O7        1.0  0.08852035088552856  0.5997214668035105  0.5640234812440565  1.0000
  O   O8        1.0  0.08842258560536398  0.22209256729879856  0.5777994767479651  1.0000
  O   O9        1.0  0.9475919072959317  0.601139456959741  0.5636011627143316  1.0000
  O   O10       1.0  0.9475137344771555  0.40535142970737703  0.7593011716028244  1.0000
  O   O11       1.0  0.9475723792898004  0.41930165078612025  0.38167554727480213  1.0000
  O   O12       1.0  0.9474941426930938  0.22351206380938904  0.5773756250601136  1.0000
