data_image0
_chemical_formula_structural       NC9NC3OH6C6NCOC6H11C7OC3OC4H12Zn2C4O8
_chemical_formula_sum              "N3 C43 O12 H29 Zn2"
_cell_length_a       15.78231758774541
_cell_length_b       10.29965916528486
_cell_length_c       10.299374482448636
_cell_angle_alpha    85.56574019764442
_cell_angle_beta     90.0656979821288
_cell_angle_gamma    89.64856781770791

_space_group_name_H-M_alt    "P 1"
_space_group_IT_number       1

loop_
  _space_group_symop_operation_xyz
  'x, y, z'

loop_
  _atom_site_type_symbol
  _atom_site_label
  _atom_site_symmetry_multiplicity
  _atom_site_fract_x
  _atom_site_fract_y
  _atom_site_fract_z
  _atom_site_occupancy
  N   N1        1.0  0.7984287829924975  0.41356318524872515  0.5703180322953654  1.0000
  C   C1        1.0  0.7498767228087833  0.33149613260924005  0.5943723595853607  1.0000
  C   C2        1.0  0.689597542242148  0.22963097200379723  0.6242299770608932  1.0000
  C   C3        1.0  0.7092289275551662  0.10167193302984256  0.6616565437393018  1.0000
  C   C4        1.0  0.6324832106941177  0.039657956720662524  0.6798694766713242  1.0000
  C   C5        1.0  0.5707256426124818  0.13436228095874236  0.6522108155273247  1.0000
  C   C6        1.0  0.4776303745732002  0.11685287797008526  0.6574162485398343  1.0000
  C   C7        1.0  0.42391147579291133  0.22421213739787604  0.625896652000717  1.0000
  C   C8        1.0  0.33570147366270453  0.2098548450971649  0.6301721432114764  1.0000
  C   C9        1.0  0.281286841562267  0.32033777974503486  0.5977272209557551  1.0000
  N   N2        1.0  0.2375503689017103  0.40915180525759043  0.5716444018420779  1.0000
  C   C10       1.0  0.3005290436755104  0.08797850371023697  0.6660161754178402  1.0000
  C   C11       1.0  0.35331706326726414  0.9808412055431048  0.6974749633183284  1.0000
  C   C12       1.0  0.44134130680666067  0.9948040802835757  0.6933156547719106  1.0000
  O   O1        1.0  0.6072114433527748  0.24659923765748704  0.6193342445033447  1.0000
  H   H1        1.0  0.7716788221743117  0.05851956618051468  0.6742272733010284  1.0000
  H   H2        1.0  0.6237261978192938  0.9376907370271974  0.7097089508925281  1.0000
  H   H3        1.0  0.45054010152956  0.3190535425198573  0.5979989175236973  1.0000
  H   H4        1.0  0.2324097750679651  0.07581862371166559  0.6696351716398425  1.0000
  H   H5        1.0  0.3259582800588749  0.886648185390691  0.7251823980138172  1.0000
  H   H6        1.0  0.4804070258542096  0.9099437932921429  0.7182414803983903  1.0000
  C   C13       1.0  0.017919112305155194  0.02999755111176894  0.5708655151467408  1.0000
  C   C14       1.0  0.018523294810391056  0.03930472107364036  0.434048472604577  1.0000
  C   C15       1.0  0.020077088687603606  0.9271447989031104  0.365216124259939  1.0000
  C   C16       1.0  0.018682878691255178  0.804112755149485  0.43434534515129286  1.0000
  C   C17       1.0  0.01806810624541688  0.792707345975403  0.5711081309643127  1.0000
  C   C18       1.0  0.01798785032831285  0.9062547564933554  0.6385971725760509  1.0000
  N   N3        1.0  0.019393149179641078  0.9402575277235055  0.22514498448657982  1.0000
  C   C19       1.0  0.05912740400501515  0.848748319514681  0.14553721532126573  1.0000
  O   O2        1.0  0.1175695976132578  0.7753314696308717  0.19269276530481028  1.0000
  C   C20       1.0  0.03452756958484238  0.842831529033414  0.007093783896723993  1.0000
  C   C21       1.0  0.9561875978505698  0.8934867748234939  0.9605104235483437  1.0000
  C   C22       1.0  0.9335096741169765  0.8867320828021923  0.8299165697250017  1.0000
  C   C23       1.0  0.9883827366978202  0.8291140603259266  0.7446239129650913  1.0000
  C   C24       1.0  0.06597710426758274  0.7776791090294357  0.7898287733842317  1.0000
  C   C25       1.0  0.08897851818827274  0.7840742434876201  0.9203191275485434  1.0000
  H   H7        1.0  0.015970696698005327  0.21971321971140112  0.8289438721315503  1.0000
  H   H8        1.0  0.01843694075809199  0.1339276186445577  0.3802241115748215  1.0000
  H   H9        1.0  0.016589571094814515  0.7173556713934254  0.38153260376709985  1.0000
  H   H10       1.0  0.017533423630415212  0.8982144769260957  0.7440677072776396  1.0000
  H   H11       1.0  0.016705011443525652  0.46089447389195437  0.6235665760961424  1.0000
  H   H12       1.0  0.9952264723817721  0.026644110280925615  0.1791306257820504  1.0000
  H   H13       1.0  0.9117731955821383  0.9366145154485449  0.024859937392395004  1.0000
  H   H14       1.0  0.8731312632372089  0.925780187646847  0.7949477490324544  1.0000
  H   H15       1.0  0.9706593912902208  0.8239587013947297  0.6436108342737112  1.0000
  H   H16       1.0  0.10838709078236208  0.7327761479025842  0.7237094502171697  1.0000
  H   H17       1.0  0.14956956913060804  0.7438384079266085  0.9530698373309101  1.0000
  C   C26       1.0  0.018072126149977663  0.4114391655626042  0.18960456339988552  1.0000
  C   C27       1.0  0.1065796792418392  0.42521401790595736  0.18750517998930283  1.0000
  C   C28       1.0  0.1511136945635505  0.43363409847085577  0.06915866617429822  1.0000
  C   C29       1.0  0.10637713493080336  0.4251521833173848  0.9522656971805445  1.0000
  C   C30       1.0  0.017915094536508303  0.41126575400508214  0.9523690609371851  1.0000
  C   C31       1.0  0.9742505419508478  0.4048308574722137  0.07154630884917235  1.0000
  C   C32       1.0  0.24467073491431046  0.44681990994516463  0.06690672446522083  1.0000
  O   O3        1.0  0.2862302260039702  0.3928616087094077  0.9811681210956023  1.0000
  C   C33       1.0  0.29107704447442084  0.5212333726030223  0.16183849302191455  1.0000
  C   C34       1.0  0.3737370631622543  0.48368598673826746  0.2002407878237189  1.0000
  C   C35       1.0  0.4190093029851889  0.5534936201072811  0.28860318062117596  1.0000
  O   O4        1.0  0.5009801400467795  0.5107789211166076  0.32413070616097284  1.0000
  C   C36       1.0  0.554080153910834  0.5721147459330889  0.4127030651436987  1.0000
  C   C37       1.0  0.38115331570981326  0.6632579947306971  0.33843822681788516  1.0000
  C   C38       1.0  0.2994828402822607  0.7021286217927449  0.29952878995897425  1.0000
  C   C39       1.0  0.2546995990769383  0.6320830721868762  0.21140883272770883  1.0000
  H   H18       1.0  0.8511919398890534  0.38345539164976516  0.4010420895677056  1.0000
  H   H19       1.0  0.14108998247459192  0.427959244776295  0.27820167929028705  1.0000
  H   H20       1.0  0.14069251812196826  0.4306628985710461  0.8609775926681862  1.0000
  H   H21       1.0  0.9060176848192227  0.3942106013160356  0.07236106436455247  1.0000
  H   H22       1.0  0.9840116156897072  0.4048469375469428  0.6250357308216041  1.0000
  H   H23       1.0  0.40310532899622364  0.39908082687216506  0.162424212701741  1.0000
  H   H24       1.0  0.6150610713791016  0.5181461793772169  0.4228289994098222  1.0000
  H   H25       1.0  0.5234832440991137  0.5706212235579284  0.5098447812730176  1.0000
  H   H26       1.0  0.5671267030446328  0.6739870499055496  0.3751133208591473  1.0000
  H   H27       1.0  0.4143679354591763  0.7193607370223007  0.4067474221089158  1.0000
  H   H28       1.0  0.2709104409385421  0.7872148248081898  0.33737685527647665  1.0000
  H   H29       1.0  0.19204925133176864  0.665438465082838  0.1810058216772461  1.0000
  Zn  Zn1       1.0  0.9251497812721176  0.4122866856759335  0.5707082865207942  1.0000
  Zn  Zn2       1.0  0.11082933787321192  0.4104177031968448  0.5712647609356756  1.0000
  C   C40       1.0  0.017941883823441973  0.4061250050033429  0.8081886227361141  1.0000
  C   C41       1.0  0.018039263230754  0.4165810020121026  0.3337845587892312  1.0000
  C   C42       1.0  0.018036658198639755  0.6485402078544751  0.5658869240608169  1.0000
  C   C43       1.0  0.017944425177025325  0.17416423951726068  0.5760863260193347  1.0000
  O   O5        1.0  0.08849265708096343  0.4175917145776997  0.3823838596803901  1.0000
  O   O6        1.0  0.088414976986541  0.4036947983670587  0.7600112988791117  1.0000
  O   O7        1.0  0.0884905583209632  0.599448149682311  0.5643509604568293  1.0000
  O   O8        1.0  0.0884170124085466  0.2218383732123439  0.5780441005376631  1.0000
  O   O9        1.0  0.9475620433734646  0.6008660162996413  0.5639289467220787  1.0000
  O   O10       1.0  0.9474864623542548  0.40511422526730567  0.7595892163928271  1.0000
  O   O11       1.0  0.9475641428176261  0.4190110965774487  0.38196021572450767  1.0000
  O   O12       1.0  0.9474884981198856  0.22325774590140401  0.5776205539500618  1.0000
