data_image0
_chemical_formula_structural       NC9NC3OH6C7OC6OCH12C7OC6OCH12Zn2C4O8
_chemical_formula_sum              "N2 C44 O13 H30 Zn2"
_cell_length_a       15.78231758774541
_cell_length_b       10.299359160628079
_cell_length_c       10.299362532796529
_cell_angle_alpha    85.5843088683533
_cell_angle_beta     90.0991944518132
_cell_angle_gamma    89.65438836023732

_space_group_name_H-M_alt    "P 1"
_space_group_IT_number       1

loop_
  _space_group_symop_operation_xyz
  'x, y, z'

loop_
  _atom_site_type_symbol
  _atom_site_label
  _atom_site_symmetry_multiplicity
  _atom_site_fract_x
  _atom_site_fract_y
  _atom_site_fract_z
  _atom_site_occupancy
  N   N1        1.0  0.7979797178556914  0.41285301677962516  0.5700639778022001  1.0000
  C   C1        1.0  0.749431367430425  0.33079526483810917  0.5941354039673707  1.0000
  C   C2        1.0  0.6891567917086681  0.22894164884936274  0.6240142452893063  1.0000
  C   C3        1.0  0.7087939313257946  0.10099706876150094  0.6614674756998016  1.0000
  C   C4        1.0  0.6320510315058544  0.03899014017571267  0.6796933279527246  1.0000
  C   C5        1.0  0.5702892202397736  0.13368378554303884  0.6520149309522187  1.0000
  C   C6        1.0  0.4771947715108645  0.11617640662024198  0.6572240091702832  1.0000
  C   C7        1.0  0.42347099994630616  0.2235234708187841  0.6256820461330463  1.0000
  C   C8        1.0  0.33526167234728776  0.20916784208219874  0.6299605260399443  1.0000
  C   C9        1.0  0.28084202255821034  0.31963822220755844  0.59749258684948  1.0000
  N   N2        1.0  0.2371015158349437  0.4084421548063617  0.5713912651411075  1.0000
  C   C10       1.0  0.3000947976987806  0.08730537874012301  0.6658299466490833  1.0000
  C   C11       1.0  0.3528876816532715  0.9801802529490001  0.6973110546321541  1.0000
  C   C12       1.0  0.4409112687094552  0.9941415091371884  0.693148839544502  1.0000
  O   O1        1.0  0.6067699552850169  0.24590803360239688  0.6191149742521509  1.0000
  H   H1        1.0  0.7712457472134991  0.05784955042415385  0.6740471992525643  1.0000
  H   H2        1.0  0.6232986098592896  0.9370344506350874  0.7095540491998202  1.0000
  H   H3        1.0  0.4500953008533335  0.3183540738036037  0.5977645551648736  1.0000
  H   H4        1.0  0.23197609957892332  0.07514690654420542  0.6694514742258904  1.0000
  H   H5        1.0  0.32553319386840956  0.8859979613141759  0.7250381107363091  1.0000
  H   H6        1.0  0.47998084380435785  0.9092908679933951  0.7180923439198621  1.0000
  C   C13       1.0  0.017444946093247093  0.02927025371942693  0.5706958361600185  1.0000
  C   C14       1.0  0.9473473580155404  0.035228738476418275  0.48608792876906337  1.0000
  C   C15       1.0  0.912599270728946  0.9212429908463824  0.4423227250193036  1.0000
  C   C16       1.0  0.9475492315533443  0.7999652779006993  0.48634364242106476  1.0000
  C   C17       1.0  0.017644381197581938  0.7920148211061698  0.5707706845702287  1.0000
  C   C18       1.0  0.05230554285172495  0.9072562826386622  0.6122501266511728  1.0000
  C   C19       1.0  0.8379948504583083  0.9296773374934807  0.3541646986118967  1.0000
  O   O2        1.0  0.7841514683365333  0.019094499124524544  0.36556835877439253  1.0000
  C   C20       1.0  0.8244705023376868  0.8367434753530191  0.2530774295344653  1.0000
  C   C21       1.0  0.8933778487784932  0.7826823358625299  0.18923123838218192  1.0000
  C   C22       1.0  0.8797422847903601  0.6964024429645573  0.09310927045342177  1.0000
  C   C23       1.0  0.7974220650104568  0.6633040662901662  0.05809813151148058  1.0000
  C   C24       1.0  0.7282292892653819  0.718402436050721  0.12063171536007689  1.0000
  C   C25       1.0  0.7417873814149363  0.8047420110822632  0.21679987010645285  1.0000
  O   O3        1.0  0.787142845964523  0.5761498130913746  0.9611698238048425  1.0000
  C   C26       1.0  0.7072864339602327  0.5340933920340523  0.9160608650276578  1.0000
  H   H7        1.0  0.1494976399947403  0.22526684492838567  0.7307685036103644  1.0000
  H   H8        1.0  0.9200915812417118  0.12882019323543004  0.45302112345623846  1.0000
  H   H9        1.0  0.9194155802610724  0.7116011286045305  0.4558074807284431  1.0000
  H   H10       1.0  0.10637647875550149  0.9018554711496405  0.6773815761317628  1.0000
  H   H11       1.0  0.04431676563738107  0.4614617921980091  0.6035690639315541  1.0000
  H   H12       1.0  0.9578003912874569  0.808130505168398  0.21255682597655712  1.0000
  H   H13       1.0  0.9335080619161829  0.6553995472918371  0.04509104668507291  1.0000
  H   H14       1.0  0.6637710529044757  0.695231098799944  0.09566142227300012  1.0000
  H   H15       1.0  0.6875478703414231  0.8457035412672534  0.263765912282639  1.0000
  H   H16       1.0  0.7178501968693853  0.4655678205831894  0.8396188171885282  1.0000
  H   H17       1.0  0.670047308617093  0.6188023352032904  0.8734387465205415  1.0000
  H   H18       1.0  0.6717321470828762  0.4829067734133672  0.9974882292314229  1.0000
  C   C27       1.0  0.01747850087835734  0.4105226872274248  0.18936614877770586  1.0000
  C   C28       1.0  0.9370320590799739  0.35264884809821107  0.19240494236972383  1.0000
  C   C29       1.0  0.8960922143650226  0.3247859347561357  0.07676513717626632  1.0000
  C   C30       1.0  0.9372707142159203  0.35281001227636466  0.9571513797713904  1.0000
  C   C31       1.0  0.017610829233272618  0.4107624176295812  0.9521003472823435  1.0000
  C   C32       1.0  0.05718163591093006  0.43954070074167606  0.06874494840352363  1.0000
  C   C33       1.0  0.8115733276362027  0.2623358473004911  0.08230632760608936  1.0000
  O   O4        1.0  0.7942413115315164  0.1833016178024014  0.17814279737630123  1.0000
  C   C34       1.0  0.746720092739365  0.2895390792238419  0.9791980783902536  1.0000
  C   C35       1.0  0.7402365009005574  0.41297945111026224  0.9113370860870891  1.0000
  C   C36       1.0  0.6782235296551447  0.4377824861746151  0.8154564137099487  1.0000
  C   C37       1.0  0.6212013472605961  0.3406888275706008  0.7862257495965355  1.0000
  C   C38       1.0  0.6267939095725513  0.21745096453350832  0.8550022835701783  1.0000
  C   C39       1.0  0.6887992544261766  0.19252080418263473  0.9509553255302432  1.0000
  O   O5        1.0  0.5602132423329392  0.37046165766779526  0.6890596977621706  1.0000
  C   C40       1.0  0.4984108472257667  0.2813192360829111  0.6494915451892607  1.0000
  H   H19       1.0  0.1694253966029613  0.519237712130626  0.39094045149222945  1.0000
  H   H20       1.0  0.9056539771036282  0.33022259794813946  0.28484196856773947  1.0000
  H   H21       1.0  0.9069746676955982  0.3280337082682916  0.8680032953283439  1.0000
  H   H22       1.0  0.11915839567007458  0.48424257797792203  0.06558122840255076  1.0000
  H   H23       1.0  0.048573017626526216  0.4325099154114318  0.6227268812231936  1.0000
  H   H24       1.0  0.7824903635851063  0.4908074505971143  0.9332966200595969  1.0000
  H   H25       1.0  0.6742113582927451  0.5332842537666105  0.7638899384524014  1.0000
  H   H26       1.0  0.5835669336584179  0.14031854305138292  0.8351366507662235  1.0000
  H   H27       1.0  0.6919881467712663  0.09684543387781352  0.002406102529676213  1.0000
  H   H28       1.0  0.45862420479433663  0.33041501617542535  0.5712926277701906  1.0000
  H   H29       1.0  0.4570273777991969  0.2495212101061277  0.7329130001644875  1.0000
  H   H30       1.0  0.529974196943817  0.1956803798908302  0.610922818610069  1.0000
  Zn  Zn1       1.0  0.9247007799473992  0.41157667059631065  0.5704544973476766  1.0000
  Zn  Zn2       1.0  0.1103804243208919  0.4097079046232075  0.5710113608244018  1.0000
  C   C41       1.0  0.017582561810626007  0.4055433411721028  0.8079267250724427  1.0000
  C   C42       1.0  0.017500670524158934  0.41574285233621344  0.3335392668071233  1.0000
  C   C43       1.0  0.017601416619552612  0.6478383143319455  0.5655813433210259  1.0000
  C   C44       1.0  0.017481751959797176  0.17344631949893907  0.5758847174537876  1.0000
  O   O6        1.0  0.08797256674056997  0.41677993461993657  0.3821364084871026  1.0000
  O   O7        1.0  0.08803721901816663  0.40308692889355235  0.7597518559460168  1.0000
  O   O8        1.0  0.08805149485449348  0.598743193942914  0.5640562428315787  1.0000
  O   O9        1.0  0.08795822752989557  0.22112367946807732  0.5778319240382297  1.0000
  O   O10       1.0  0.9471229133750448  0.6001608963905702  0.563633933936988  1.0000
  O   O11       1.0  0.9471086379308026  0.4045061916577699  0.7593294779593172  1.0000
  O   O12       1.0  0.947043985426864  0.4181991516358472  0.38171246910291345  1.0000
  O   O13       1.0  0.9470296462271867  0.22254288722561522  0.5774080820204908  1.0000
