data_image0
_chemical_formula_structural       NC9NC3OH6C7OC3FC3H9C7OC4NC3H9Zn2C4O8
_chemical_formula_sum              "N3 C43 O11 H24 F1 Zn2"
_cell_length_a       15.78231758774541
_cell_length_b       10.29937835083307
_cell_length_c       10.299375074045738
_cell_angle_alpha    85.53063417163439
_cell_angle_beta     90.07708282106614
_cell_angle_gamma    89.65202187042591

_space_group_name_H-M_alt    "P 1"
_space_group_IT_number       1

loop_
  _space_group_symop_operation_xyz
  'x, y, z'

loop_
  _atom_site_type_symbol
  _atom_site_label
  _atom_site_symmetry_multiplicity
  _atom_site_fract_x
  _atom_site_fract_y
  _atom_site_fract_z
  _atom_site_occupancy
  N   N1        1.0  0.7982973819460739  0.41386044279355283  0.5696364233718503  1.0000
  C   C1        1.0  0.7497452720454619  0.3317846900064343  0.5937296452116938  1.0000
  C   C2        1.0  0.6894660298137076  0.22990873035214632  0.6236355402818274  1.0000
  C   C3        1.0  0.7090973273220968  0.10193613756222297  0.6611227504776362  1.0000
  C   C4        1.0  0.6323515776179508  0.03991558171905085  0.6793650744970008  1.0000
  C   C5        1.0  0.5705940798986409  0.1346299313386221  0.6516615306884268  1.0000
  C   C6        1.0  0.4774988108032104  0.11711866148646677  0.6568752628842216  1.0000
  C   C7        1.0  0.4237799702916463  0.2244893099020111  0.62530478430462  1.0000
  C   C8        1.0  0.3355699682281211  0.21013048577831483  0.6295870807297765  1.0000
  C   C9        1.0  0.28115539501764997  0.320625141979757  0.5970897958985419  1.0000
  N   N2        1.0  0.23741896952932304  0.4094485902960383  0.5709648840149069  1.0000
  C   C10       1.0  0.30039748021681767  0.08824120633472532  0.6654888759453725  1.0000
  C   C11       1.0  0.3531854422278379  0.9810925420936389  0.6969984407397023  1.0000
  C   C12       1.0  0.44120968553671724  0.9950569067601283  0.6928325139142881  1.0000
  O   O1        1.0  0.6070799513331625  0.2468787835678372  0.6187317667421499  1.0000
  H   H1        1.0  0.7715471857070788  0.058779207262860345  0.6737139306190816  1.0000
  H   H2        1.0  0.6235944967563787  0.937937559133782  0.709252874129954  1.0000
  H   H3        1.0  0.4504086405663417  0.3193407838117166  0.5973620999094207  1.0000
  H   H4        1.0  0.2322782113892769  0.07608002926987045  0.6691136358057026  1.0000
  H   H5        1.0  0.3258266148410613  0.8868895219274566  0.724750518057317  1.0000
  H   H6        1.0  0.4802753600508394  0.9101876158398703  0.7177985585122764  1.0000
  C   C13       1.0  0.01777290603858006  0.030270387400457954  0.5703644059977382  1.0000
  C   C14       1.0  0.9293692410664988  0.03117242983227264  0.5540714305082264  1.0000
  C   C15       1.0  0.884673182555165  0.9143400934938114  0.5473307981882107  1.0000
  C   C16       1.0  0.9295764242862339  0.7959263426948242  0.5540789328549529  1.0000
  C   C17       1.0  0.017951510487022926  0.7930286112904581  0.5702481471735779  1.0000
  C   C18       1.0  0.06151223703646225  0.9107259735305313  0.5786391945592166  1.0000
  C   C19       1.0  0.7914298184159296  0.9152544421171065  0.5287535945443236  1.0000
  O   O2        1.0  0.7587070271174935  0.8309186021920938  0.4619904839869762  1.0000
  C   C20       1.0  0.7353085091726966  0.011743648754718894  0.5859254109642473  1.0000
  C   C21       1.0  0.6598357338707879  0.052524756695042196  0.5219132594442992  1.0000
  C   C22       1.0  0.6060075100848019  0.1423015070189826  0.5758138407853963  1.0000
  F   F1        1.0  0.5337159778134059  0.1817423162708831  0.5128727230630792  1.0000
  C   C23       1.0  0.6266215074927944  0.19134523163676165  0.6944868210117525  1.0000
  C   C24       1.0  0.7008777669053281  0.15032352758561185  0.7597099120040511  1.0000
  C   C25       1.0  0.7548811615866244  0.06061646852379132  0.7062145916673219  1.0000
  H   H7        1.0  0.18474910571237158  0.23604211504620576  0.5991154410772137  1.0000
  H   H8        1.0  0.8952773554531563  0.12302979723489815  0.5451547481572676  1.0000
  H   H9        1.0  0.8952750170164495  0.7058047239290949  0.5479225708815123  1.0000
  H   H10       1.0  0.12966489315090457  0.9092265628064957  0.5911991257363776  1.0000
  H   H11       1.0  0.05198101098824126  0.46454322877700355  0.5753637457497214  1.0000
  H   H12       1.0  0.642960873819668  0.015728137788238783  0.4296995297330579  1.0000
  H   H13       1.0  0.584929314480116  0.2607359079573399  0.736241628181717  1.0000
  H   H14       1.0  0.7164426785668966  0.18762038793123925  0.8521332590809694  1.0000
  H   H15       1.0  0.8113454700036629  0.0284666813606147  0.7595400577399296  1.0000
  C   C26       1.0  0.017891052185132317  0.41179155736844675  0.18891957820711602  1.0000
  C   C27       1.0  0.08313385539421514  0.5042507137659895  0.1806591896127565  1.0000
  C   C28       1.0  0.11538250914804249  0.5519714338383301  0.05923329094089458  1.0000
  C   C29       1.0  0.08299661296505456  0.5040143474884253  0.9454334946213634  1.0000
  C   C30       1.0  0.017833352943820158  0.41150744136200057  0.9516930033184119  1.0000
  C   C31       1.0  0.9855057676469897  0.3661841680237239  0.07391457024385328  1.0000
  C   C32       1.0  0.18488258114615586  0.6485959136050696  0.05045109238610612  1.0000
  O   O3        1.0  0.2390285474336702  0.6433667056582029  0.9609806777690513  1.0000
  C   C33       1.0  0.19294485301787345  0.7511645067511452  0.14308626265133695  1.0000
  C   C34       1.0  0.2735305907433103  0.7969177428454683  0.1750794798982922  1.0000
  C   C35       1.0  0.28176422559791203  0.8948507452317618  0.26130611220340794  1.0000
  C   C36       1.0  0.36451948700488956  0.9403728476092654  0.294337033791106  1.0000
  N   N3        1.0  0.4310453927410758  0.9769618721338205  0.3208864130001441  1.0000
  C   C37       1.0  0.20942026837761962  0.9484307655399473  0.3152725919976467  1.0000
  C   C38       1.0  0.1291172696395051  0.9046864193206521  0.28277896877401343  1.0000
  C   C39       1.0  0.12071518311977325  0.8070251046775627  0.19682734429878446  1.0000
  H   H16       1.0  0.8956609595854531  0.23583765355362485  0.411945705503064  1.0000
  H   H17       1.0  0.10959488732711198  0.5381875371740246  0.26891725269238753  1.0000
  H   H18       1.0  0.10822589429916496  0.5399981749416094  0.851759109127689  1.0000
  H   H19       1.0  0.935208614957138  0.2949042421051813  0.07947890842512861  1.0000
  H   H20       1.0  0.9932889917420529  0.375165829101485  0.6267042403860348  1.0000
  H   H21       1.0  0.32985056683333847  0.7556301524149591  0.1338754336080641  1.0000
  H   H22       1.0  0.2150903497945893  0.024254822090062245  0.38195731813736344  1.0000
  H   H23       1.0  0.07321966179203443  0.9469485032310831  0.32383532427040906  1.0000
  H   H24       1.0  0.05777231103164593  0.7762626943161939  0.17133842018181045  1.0000
  Zn  Zn1       1.0  0.9250183815501439  0.4125838055576545  0.5700272827617812  1.0000
  Zn  Zn2       1.0  0.11069793814764983  0.41071462368484046  0.5705846430547705  1.0000
  C   C40       1.0  0.017841178563069215  0.4063872582836374  0.8075132479642226  1.0000
  C   C41       1.0  0.01787716912381354  0.41691278918475194  0.33309881116130047  1.0000
  C   C42       1.0  0.017913793517324583  0.6488530207452288  0.5650946916821273  1.0000
  C   C43       1.0  0.017804490439466525  0.17444546697052132  0.575517436732907  1.0000
  O   O4        1.0  0.08833693256638253  0.4179165106190561  0.3816981950244087  1.0000
  O   O5        1.0  0.0883079020443529  0.40396389143557343  0.7593365139529307  1.0000
  O   O6        1.0  0.08836558954201035  0.5997580700806409  0.5635818115464266  1.0000
  O   O7        1.0  0.08827918171840765  0.2221223419386804  0.5774527998600996  1.0000
  O   O8        1.0  0.9474370746160666  0.601176087943091  0.5631591257594206  1.0000
  O   O9        1.0  0.9473793874851815  0.4053834696899392  0.7589137586793824  1.0000
  O   O10       1.0  0.9474084181710268  0.4193360441967571  0.38127387828444403  1.0000
  O   O11       1.0  0.9473506673100501  0.2235418661909656  0.5770285804939173  1.0000
