data_image0
_chemical_formula_structural       NC9NC3OH6C7OC6H10C7OC4NC3H9Zn2C4O8
_chemical_formula_sum              "N3 C43 O11 H25 Zn2"
_cell_length_a       15.78231758774541
_cell_length_b       10.299379429549807
_cell_length_c       10.299375074045738
_cell_angle_alpha    85.51714373298503
_cell_angle_beta     90.07708282106614
_cell_angle_gamma    89.62936124648849

_space_group_name_H-M_alt    "P 1"
_space_group_IT_number       1

loop_
  _space_group_symop_operation_xyz
  'x, y, z'

loop_
  _atom_site_type_symbol
  _atom_site_label
  _atom_site_symmetry_multiplicity
  _atom_site_fract_x
  _atom_site_fract_y
  _atom_site_fract_z
  _atom_site_occupancy
  N   N1        1.0  0.7979320512680074  0.41388994620215014  0.5693014708046173  1.0000
  C   C1        1.0  0.7494011491114635  0.33181248071807956  0.5934141369143986  1.0000
  C   C2        1.0  0.6891482308451394  0.22993439519056347  0.6233441670499127  1.0000
  C   C3        1.0  0.7088125954885035  0.10195913196190376  0.660861694770134  1.0000
  C   C4        1.0  0.6320828714195861  0.03993728191900359  0.6791187118552156  1.0000
  C   C5        1.0  0.5703009002398681  0.1346536079685483  0.6513927296124093  1.0000
  C   C6        1.0  0.4772101559220575  0.11714197270398463  0.6566106103398524  1.0000
  C   C7        1.0  0.42346357165969395  0.2245148616519146  0.6250146949680162  1.0000
  C   C8        1.0  0.3352572798060271  0.21015573789874864  0.629300393090297  1.0000
  C   C9        1.0  0.2808141556251412  0.3206526998220931  0.5967769313694347  1.0000
  N   N2        1.0  0.2370547788400529  0.40947800164131487  0.5706309766437028  1.0000
  C   C10       1.0  0.3001162870482581  0.08826391495856911  0.6652310646545283  1.0000
  C   C11       1.0  0.35293193545107227  0.9811130148173003  0.6967660136516245  1.0000
  C   C12       1.0  0.44095257047538683  0.9950776708819673  0.6925967785790499  1.0000
  O   O1        1.0  0.6067577674331961  0.24690480252494895  0.6184363731962643  1.0000
  H   H1        1.0  0.7712736052927716  0.05880130109519377  0.6734630990639496  1.0000
  H   H2        1.0  0.6233521408957216  0.9379571313307318  0.7090306707329093  1.0000
  H   H3        1.0  0.45006773304211795  0.3193683148530031  0.5970495396529651  1.0000
  H   H4        1.0  0.23200016057545672  0.07610248412314013  0.6688587055753612  1.0000
  H   H5        1.0  0.3255974494011006  0.8869080288911951  0.7245404082662581  1.0000
  H   H6        1.0  0.48004017456237247  0.9102066089712412  0.7175829292539979  1.0000
  C   C13       1.0  0.017506692084339415  0.030291886331529794  0.5701203283640774  1.0000
  C   C14       1.0  0.06886126335636145  0.01984588786740593  0.6820260215936691  1.0000
  C   C15       1.0  0.09396872644202503  0.8973456340000121  0.7393168188836203  1.0000
  C   C16       1.0  0.0687581494465681  0.7846249538009401  0.6817494156614361  1.0000
  C   C17       1.0  0.017488227505467968  0.793066009470204  0.5698233527187999  1.0000
  C   C18       1.0  0.9919758434580175  0.9163720456599577  0.5148546187561531  1.0000
  C   C19       1.0  0.1489312583759641  0.8862251684606308  0.8566855225148609  1.0000
  O   O2        1.0  0.202684837604721  0.7948940851235852  0.8692049716291022  1.0000
  C   C20       1.0  0.1429090753185278  0.9786131239421848  0.959856284735559  1.0000
  C   C21       1.0  0.21538016826836226  0.007323229254223129  0.03164128444614178  1.0000
  C   C22       1.0  0.2101246333357718  0.09309911707371987  0.1301216834697958  1.0000
  C   C23       1.0  0.1325056462698817  0.15016192249636018  0.15864609192614254  1.0000
  C   C24       1.0  0.059904480098880164  0.12114342418804158  0.08910488934233363  1.0000
  C   C25       1.0  0.06481976063536687  0.035450640297314484  0.9905357896379745  1.0000
  H   H7        1.0  0.9216668227393843  0.25740414671744927  0.3577900630391486  1.0000
  H   H8        1.0  0.09017187486892664  0.10720424316843546  0.723929253920089  1.0000
  H   H9        1.0  0.08859020649475413  0.6901081892035089  0.7252484369273862  1.0000
  H   H10       1.0  0.9523857380658142  0.9236210266285931  0.4285831589715272  1.0000
  H   H11       1.0  0.9983824067780348  0.4688954760423303  0.5261961381482185  1.0000
  H   H12       1.0  0.2761669142990093  0.964275149578422  0.010777130145989688  1.0000
  H   H13       1.0  0.26628740529979344  0.11528496023776302  0.18438999362197983  1.0000
  H   H14       1.0  0.12855309836631812  0.2164437559652126  0.2349782446226103  1.0000
  H   H15       1.0  0.9996628048301317  0.16462403107384893  0.11197060113588264  1.0000
  H   H16       1.0  0.007486585689671532  0.012590493505303169  0.9394238106943891  1.0000
  C   C26       1.0  0.01752625609116798  0.4118210176050521  0.1885851157720524  1.0000
  C   C27       1.0  0.08274516856444825  0.50428210337284  0.18030282301313516  1.0000
  C   C28       1.0  0.1149814916507681  0.5520038192463648  0.058865618997963276  1.0000
  C   C29       1.0  0.08260798721051832  0.5040457321629566  0.9450771840184231  1.0000
  C   C30       1.0  0.01746863026324963  0.41153689566987994  0.9513586081922436  1.0000
  C   C31       1.0  0.9851527561521057  0.36621267655858936  0.0735909124905556  1.0000
  C   C32       1.0  0.18445659662551606  0.6486303153022803  0.05006052948691364  1.0000
  O   O3        1.0  0.23860391410019632  0.643400998236116  0.9605913537026134  1.0000
  C   C33       1.0  0.19249236556062987  0.7512010487749545  0.14267140059746697  1.0000
  C   C34       1.0  0.27306628100130625  0.7969552396144408  0.17465377861062992  1.0000
  C   C35       1.0  0.28127461072034854  0.8948902855952063  0.26085720996212003  1.0000
  C   C36       1.0  0.36401810956574243  0.940413337894743  0.29387734707308  1.0000
  N   N3        1.0  0.43053456097904474  0.977003125932377  0.3204180581085654  1.0000
  C   C37       1.0  0.20891680883437513  0.9484714239721797  0.31481099630740794  1.0000
  C   C38       1.0  0.1286251132993086  0.90472616492777  0.28232773639872777  1.0000
  C   C39       1.0  0.12024826171310998  0.8070628123595909  0.1963992485125623  1.0000
  H   H17       1.0  0.8953416286286716  0.23586344211248766  0.4116529276713832  1.0000
  H   H18       1.0  0.10919743148285699  0.5382196349497561  0.2685528462425937  1.0000
  H   H19       1.0  0.1078279706000187  0.5400303105004094  0.8513942737262465  1.0000
  H   H20       1.0  0.9348740216475857  0.29493126322253693  0.07917213734144446  1.0000
  H   H21       1.0  0.9929336594549377  0.3751945250591031  0.6263784548198736  1.0000
  H   H22       1.0  0.3293969254875573  0.7556667876246053  0.13345951361422048  1.0000
  H   H23       1.0  0.21456729789756301  0.024297062763408483  0.38147775924394645  1.0000
  H   H24       1.0  0.07271658525398483  0.9469891307325466  0.32337407973757637  1.0000
  H   H25       1.0  0.057313338395522884  0.7762997600706767  0.17091761220703994  1.0000
  Zn  Zn1       1.0  0.924653380745333  0.41261328232631667  0.569692632638062  1.0000
  Zn  Zn2       1.0  0.11033342032507676  0.41074406144877873  0.5702504357521725  1.0000
  C   C40       1.0  0.017477778898476348  0.40641660574727045  0.8071800658421213  1.0000
  C   C41       1.0  0.017511049742885865  0.41694235628748766  0.33276313547371683  1.0000
  C   C42       1.0  0.017487742562175113  0.6488874278075636  0.5647040678726116  1.0000
  C   C43       1.0  0.017501022752123063  0.1744699744420075  0.5752392031022531  1.0000
  O   O4        1.0  0.08797055383154562  0.4179460986667187  0.38136228154880825  1.0000
  O   O5        1.0  0.08794512855913861  0.4039931883301544  0.7590039059419103  1.0000
  O   O6        1.0  0.08795222434499705  0.5997914526653501  0.5632028186442235  1.0000
  O   O7        1.0  0.08796339469279557  0.22214784429642287  0.5771632712733206  1.0000
  O   O8        1.0  0.9470233430141297  0.6012095001179625  0.562779796919731  1.0000
  O   O9        1.0  0.9470162471918506  0.405412796207244  0.7585808143612085  1.0000
  O   O10       1.0  0.9470416726396177  0.41936566186621094  0.3809376285122743  1.0000
  O   O11       1.0  0.9470345134902749  0.2235673981703048  0.5767387156127781  1.0000
