data_image0
_chemical_formula_structural       NC9NC3OH6C7OC6H10C6NCOC6H11Zn2C4O8
_chemical_formula_sum              "N3 C42 O11 H27 Zn2"
_cell_length_a       15.78231758774541
_cell_length_b       10.299379429549807
_cell_length_c       10.299662537453274
_cell_angle_alpha    85.5174171995128
_cell_angle_beta     90.07028812251602
_cell_angle_gamma    89.62936124648849

_space_group_name_H-M_alt    "P 1"
_space_group_IT_number       1

loop_
  _space_group_symop_operation_xyz
  'x, y, z'

loop_
  _atom_site_type_symbol
  _atom_site_label
  _atom_site_symmetry_multiplicity
  _atom_site_fract_x
  _atom_site_fract_y
  _atom_site_fract_z
  _atom_site_occupancy
  N   N1        1.0  0.7980428079763764  0.4138819748931706  0.569342242845615  1.0000
  C   C1        1.0  0.7495100391515763  0.3318046437557205  0.593454221792733  1.0000
  C   C2        1.0  0.6892548038690874  0.2299267249869681  0.6233833989823674  1.0000
  C   C3        1.0  0.7089162641145007  0.10195167079172762  0.6608998575282328  1.0000
  C   C4        1.0  0.6321851266890475  0.039929922469994716  0.6791563543249142  1.0000
  C   C5        1.0  0.5704053019003874  0.13464609404089356  0.6514311622170399  1.0000
  C   C6        1.0  0.4773141536433244  0.11713448784837999  0.6566488942453383  1.0000
  C   C7        1.0  0.42357001536067856  0.22450720075586617  0.6250538792937728  1.0000
  C   C8        1.0  0.3353633917321427  0.21014810088098312  0.6293394552822458  1.0000
  C   C9        1.0  0.28092278533644455  0.32064488159594773  0.5968169204148663  1.0000
  N   N2        1.0  0.23716543262548762  0.4094700377398375  0.5706717107964483  1.0000
  C   C10       1.0  0.3002196174219847  0.08825647813286275  0.6652691028943416  1.0000
  C   C11       1.0  0.3530328245647581  0.9811057536923563  0.6968031532085868  1.0000
  C   C12       1.0  0.44105378234802156  0.9950703865276286  0.6926340369508566  1.0000
  O   O1        1.0  0.6068647203911983  0.24689710497698947  0.6184757449910083  1.0000
  H   H1        1.0  0.7713762983882625  0.05879391013525792  0.6735009027072794  1.0000
  H   H2        1.0  0.6234520805479942  0.9379499385398001  0.7090674607717227  1.0000
  H   H3        1.0  0.45017634164960707  0.31936049814572764  0.5970895209296065  1.0000
  H   H4        1.0  0.23210321011743612  0.07609506750927153  0.6688966404346777  1.0000
  H   H5        1.0  0.3256961883759127  0.8869009225146322  0.7245767563086329  1.0000
  H   H6        1.0  0.480139452146443  0.910199463830247  0.7176194755705818  1.0000
  C   C13       1.0  0.01761738540131841  0.030283919584914054  0.5701610770692755  1.0000
  C   C14       1.0  0.06896329355810238  0.01983854461682255  0.682063581210866  1.0000
  C   C15       1.0  0.09406632150946037  0.8973386099519988  0.7393527458279039  1.0000
  C   C16       1.0  0.06886020106159885  0.7846176090092137  0.6817869831613481  1.0000
  C   C17       1.0  0.017598943812647372  0.7930580410689525  0.5698641098872088  1.0000
  C   C18       1.0  0.9920908151382977  0.9163637709937917  0.5148969424233241  1.0000
  C   C19       1.0  0.14901976741233525  0.88621879834647  0.8567181046862953  1.0000
  O   O2        1.0  0.20277237745509957  0.7948877847630412  0.8692371970213253  1.0000
  C   C20       1.0  0.14298959744934914  0.9786073286563379  0.9598859267470217  1.0000
  C   C21       1.0  0.2154551332044874  0.007317833927138695  0.03166888072896823  1.0000
  C   C22       1.0  0.2101919744681311  0.09309427044202634  0.13014647325860207  1.0000
  C   C23       1.0  0.1325707792014743  0.15015723479184007  0.15867006882647006  1.0000
  C   C24       1.0  0.05997499652289773  0.12113834902634468  0.08913084802757609  1.0000
  C   C25       1.0  0.06489790772986281  0.03544501594602023  0.9905645573450288  1.0000
  H   H7        1.0  0.9217939534824142  0.25739499694721535  0.3578368627314039  1.0000
  H   H8        1.0  0.09027066115590299  0.10719713338675274  0.723965619379138  1.0000
  H   H9        1.0  0.0886888906579324  0.6901010867718131  0.7252847647923628  1.0000
  H   H10       1.0  0.9525073884018117  0.9236122712906096  0.42862794120241565  1.0000
  H   H11       1.0  0.9984965004610777  0.4688872645668042  0.5262381386048149  1.0000
  H   H12       1.0  0.2762434944217067  0.9642696380041915  0.010805321015402325  1.0000
  H   H13       1.0  0.26635054528196034  0.11528041596848881  0.18441323687269928  1.0000
  H   H14       1.0  0.1286123220879667  0.21643949355446424  0.23500004620955384  1.0000
  H   H15       1.0  0.9997315511181485  0.16461908331121622  0.11199590819416128  1.0000
  H   H16       1.0  0.0075686895887845385  0.012584584377468788  0.9394540349904157  1.0000
  C   C26       1.0  0.017666485738416116  0.41181092508909756  0.18863673746622145  1.0000
  C   C27       1.0  0.10416059598976202  0.44331837011413544  0.18507201206340285  1.0000
  C   C28       1.0  0.14798164258364865  0.4573040142645193  0.06659440090508562  1.0000
  C   C29       1.0  0.1040123383446121  0.44300976827372796  0.9499283873414206  1.0000
  C   C30       1.0  0.017549863080875028  0.4115310114015218  0.9513884501261276  1.0000
  C   C31       1.0  0.9749374451033125  0.3956640240771443  0.07131281139758672  1.0000
  N   N3        1.0  0.23621399413009447  0.4915051626249507  0.06636429165223046  1.0000
  C   C32       1.0  0.29618318834839963  0.45105027587470437  0.9723483580115371  1.0000
  O   O3        1.0  0.280731402240203  0.35264154738349895  0.9107884255442165  1.0000
  C   C33       1.0  0.377533029981753  0.5205657658367833  0.9502168329535441  1.0000
  C   C34       1.0  0.3877521316842447  0.6485408356580993  0.9865517310335599  1.0000
  C   C35       1.0  0.4646186056035291  0.7133279211275818  0.9645683348705059  1.0000
  C   C36       1.0  0.531881973383949  0.6516215300047259  0.90582089718828  1.0000
  C   C37       1.0  0.5223503877705742  0.5250860204738919  0.8684815496269507  1.0000
  C   C38       1.0  0.44562839428262  0.4598404245142773  0.8901364816436113  1.0000
  H   H17       1.0  0.854314356668008  0.35358552084032735  0.4025303526830539  1.0000
  H   H18       1.0  0.13810836724768571  0.45619723770160037  0.27459001912087344  1.0000
  H   H19       1.0  0.13683027599837083  0.45864489878702286  0.8579083291516469  1.0000
  H   H20       1.0  0.908262913799322  0.37135835545289475  0.07319671543647477  1.0000
  H   H21       1.0  0.9841092523594038  0.40113932743856484  0.6243678102900465  1.0000
  H   H22       1.0  0.2593373294259793  0.5384794270859763  0.14533851418999633  1.0000
  H   H23       1.0  0.33626677482656064  0.6995963005282855  0.03015003929153015  1.0000
  H   H24       1.0  0.4719052305960352  0.8117400291970271  0.9926679154208218  1.0000
  H   H25       1.0  0.5912928490001972  0.7020057415784584  0.888863405017418  1.0000
  H   H26       1.0  0.5744619674529925  0.47744177459493997  0.8226868263284159  1.0000
  H   H27       1.0  0.4397936798591149  0.36163636303144364  0.8606661727234703  1.0000
  Zn  Zn1       1.0  0.9247641071721322  0.41260531319674265  0.569733393531731  1.0000
  Zn  Zn2       1.0  0.11044410356986711  0.4107360954270718  0.5702911807495705  1.0000
  C   C39       1.0  0.017570120371461773  0.4064099598075017  0.8072140588198631  1.0000
  C   C40       1.0  0.01764011793119935  0.41693306707671574  0.332810648383254  1.0000
  C   C41       1.0  0.01759885517586235  0.6488794308836003  0.5647449709303793  1.0000
  C   C42       1.0  0.017611319794342606  0.17446203621581757  0.575279805929779  1.0000
  O   O4        1.0  0.08809585974476208  0.41793708023193576  0.3814084094800734  1.0000
  O   O5        1.0  0.08804119956198875  0.40398627397111486  0.7590392718436654  1.0000
  O   O6        1.0  0.08806345317703501  0.5997834473769965  0.5632437644845858  1.0000
  O   O7        1.0  0.08807354278437751  0.22213991679041079  0.5772038192687596  1.0000
  O   O8        1.0  0.9471346045941526  0.6012014924726925  0.5628207548153648  1.0000
  O   O9        1.0  0.9471123509480939  0.4054058794908988  0.7586161923202255  1.0000
  O   O10       1.0  0.9471670114271056  0.41935664106542236  0.3809837685453006  1.0000
  O   O11       1.0  0.9471446944485906  0.22355946829883  0.5767792757072028  1.0000
