data_image0
_chemical_formula_structural       NC9NC3OH6C7OC3OC4H12C7OC3NC3H11Zn2C4O8
_chemical_formula_sum              "N3 C43 O12 H29 Zn2"
_cell_length_a       15.78231758774541
_cell_length_b       10.299371110280156
_cell_length_c       10.298749378158432
_cell_angle_alpha    85.57454226300092
_cell_angle_beta     90.09282152326762
_cell_angle_gamma    89.64456115777638

_space_group_name_H-M_alt    "P 1"
_space_group_IT_number       1

loop_
  _space_group_symop_operation_xyz
  'x, y, z'

loop_
  _atom_site_type_symbol
  _atom_site_label
  _atom_site_symmetry_multiplicity
  _atom_site_fract_x
  _atom_site_fract_y
  _atom_site_fract_z
  _atom_site_occupancy
  N   N1        1.0  0.7979234947133459  0.41338497043749256  0.5702445072232947  1.0000
  C   C1        1.0  0.7493825960547583  0.3313192524344337  0.5943001827376893  1.0000
  C   C2        1.0  0.6891172697618844  0.2294557484907711  0.6241594737047746  1.0000
  C   C3        1.0  0.7087660337915438  0.10149877841106081  0.6615881386239952  1.0000
  C   C4        1.0  0.6320287623226647  0.03948581616617597  0.6798020921391987  1.0000
  C   C5        1.0  0.5702583447293614  0.13418861549653416  0.6521418801020378  1.0000
  C   C6        1.0  0.4771654806619773  0.11667950846895558  0.6573476043974373  1.0000
  C   C7        1.0  0.4234319644666332  0.22403701399313292  0.6258262415502249  1.0000
  C   C8        1.0  0.3352239357435519  0.2096799654681174  0.630101971960739  1.0000
  C   C9        1.0  0.2807942583842269  0.32016109392094894  0.5976552315967134  1.0000
  N   N2        1.0  0.2370456908796494  0.4089736672888884  0.5715709508947382  1.0000
  C   C10       1.0  0.3000681189609877  0.08780562468156772  0.6659480124045212  1.0000
  C   C11       1.0  0.352870727090092  0.9806700774580024  0.6974085631771783  1.0000
  C   C12       1.0  0.4408930510428685  0.9946327149252436  0.6932490219391931  1.0000
  O   O1        1.0  0.6067288870792586  0.2464237500821609  0.6192634662395737  1.0000
  H   H1        1.0  0.7712217734593004  0.058347101493344766  0.6741595732685102  1.0000
  H   H2        1.0  0.6232856027859781  0.9375202474473198  0.7096432391477718  1.0000
  H   H3        1.0  0.45004766072854396  0.31887686157146167  0.5979269440744786  1.0000
  H   H4        1.0  0.2319505210722877  0.0756459508238485  0.6695672111111248  1.0000
  H   H5        1.0  0.3255247850944452  0.8864786042658231  0.7251175502069103  1.0000
  H   H6        1.0  0.4799703277830014  0.9097738160656436  0.7181762442933093  1.0000
  C   C13       1.0  0.017431498731437456  0.02980847043183288  0.5707927487978359  1.0000
  C   C14       1.0  0.007655011728918026  0.03920678023584023  0.43476861509885945  1.0000
  C   C15       1.0  0.0017669339990145083  0.926769707691569  0.3663271158239456  1.0000
  C   C16       1.0  0.0076971009890765  0.8039384475984923  0.4350798499342805  1.0000
  C   C17       1.0  0.01754577971424487  0.7925401209190703  0.5710339630739496  1.0000
  C   C18       1.0  0.022134153463815087  0.9060751353900185  0.6381407404912736  1.0000
  C   C19       1.0  0.9923272714373798  0.9365567737707032  0.22254154209311072  1.0000
  O   O2        1.0  0.027054046825996103  0.8511751689321375  0.1586190256837452  1.0000
  C   C20       1.0  0.9434824053557317  0.04312324551585722  0.1512781970582826  1.0000
  C   C21       1.0  0.9671532931010994  0.08805744392796688  0.02419826417195714  1.0000
  C   C22       1.0  0.9213156916261813  0.1875377193993668  0.954674162543347  1.0000
  O   O3        1.0  0.9483550659441021  0.22908533789621877  0.8286491881189555  1.0000
  C   C23       1.0  0.9079578110701746  0.3289839176931457  0.7470864885902415  1.0000
  C   C24       1.0  0.8502438861336421  0.2421049823783894  0.012951654411548885  1.0000
  C   C25       1.0  0.8257029390665378  0.19688982881783557  0.13851179428974403  1.0000
  C   C26       1.0  0.8716908295325446  0.0976894150966241  0.20728411975893613  1.0000
  H   H7        1.0  0.037173733649090934  0.219399360706227  0.8272632491203453  1.0000
  H   H8        1.0  0.005551580628004649  0.13416735016755577  0.3817288419070777  1.0000
  H   H9        1.0  0.0037960009890745106  0.7171222643337226  0.38234193641443404  1.0000
  H   H10       1.0  0.02967165395724014  0.8980259204606518  0.7430053824209399  1.0000
  H   H11       1.0  0.02203397509656524  0.46070703062266877  0.6231380228915213  1.0000
  H   H12       1.0  0.021932945294504957  0.046615394760570306  0.9789877228255754  1.0000
  H   H13       1.0  0.9425127046708948  0.34173681943884215  0.6533134259016844  1.0000
  H   H14       1.0  0.9092109026957903  0.42242358538884095  0.7941126162644871  1.0000
  H   H15       1.0  0.8415531071259128  0.30141953637764396  0.7271203055205615  1.0000
  H   H16       1.0  0.8134344059375395  0.3189787956759933  0.9619484446328386  1.0000
  H   H17       1.0  0.7706029271441235  0.23849661629736785  0.18249955045084487  1.0000
  H   H18       1.0  0.8505635864620064  0.06274429724854835  0.3036057088330886  1.0000
  C   C27       1.0  0.0174495602151703  0.41120268724913345  0.18951218118263613  1.0000
  C   C28       1.0  0.06374991816427444  0.5276029349762816  0.17966925819255808  1.0000
  C   C29       1.0  0.08631213432710938  0.5872723918131866  0.05745099740731052  1.0000
  C   C30       1.0  0.06375329295984011  0.5276517627552253  0.9444252543953549  1.0000
  C   C31       1.0  0.01752768535924565  0.4111458697961261  0.9523145092255834  1.0000
  C   C32       1.0  0.9944745433401151  0.3538431861966136  0.07528074877861823  1.0000
  C   C33       1.0  0.13589198492181898  0.7095429249115617  0.046959393408450234  1.0000
  O   O4        1.0  0.18883866019829987  0.7273539341749593  0.955778204678349  1.0000
  C   C34       1.0  0.12540850758817346  0.8115995843039836  0.13984960738271157  1.0000
  C   C35       1.0  0.046142811955921514  0.8349699899758196  0.19632157095184066  1.0000
  C   C36       1.0  0.03667950274301002  0.9325675930206525  0.28302404956403193  1.0000
  N   N3        1.0  0.9560121675943378  0.9552296988625932  0.3404594366696001  1.0000
  C   C37       1.0  0.10660838885059776  0.008116615961081486  0.3126570324080862  1.0000
  C   C38       1.0  0.18520667801098534  0.9867035762336023  0.25572433470482925  1.0000
  C   C39       1.0  0.1946212045148008  0.8894181353846857  0.1693986117926385  1.0000
  H   H19       1.0  0.9310874713913557  0.1902385557488364  0.41555394825583436  1.0000
  H   H20       1.0  0.08310704132354485  0.5712545156624074  0.2672877253385919  1.0000
  H   H21       1.0  0.08162967188773695  0.5729943816522467  0.8500873147028543  1.0000
  H   H22       1.0  0.9587893558720206  0.26411716604390945  0.08211608751637889  1.0000
  H   H23       1.0  0.930491236869083  0.19076750427524658  0.7599378081592167  1.0000
  H   H24       1.0  0.9914634631381722  0.7785117608027612  0.17209540550555458  1.0000
  H   H25       1.0  0.9034626305140547  0.8994852547885293  0.31905493011460506  1.0000
  H   H26       1.0  0.9482596212862828  0.027826338612552348  0.4049466422115271  1.0000
  H   H27       1.0  0.10010894754787047  0.08379664219439986  0.37939434279520734  1.0000
  H   H28       1.0  0.2389812088891241  0.04563072380241717  0.27854189978908006  1.0000
  H   H29       1.0  0.256174395613745  0.8741550199639971  0.12657945458604059  1.0000
  Zn  Zn1       1.0  0.9246446715683668  0.41210849408618144  0.5706347832173366  1.0000
  Zn  Zn2       1.0  0.11032448503171222  0.4102395433265673  0.571191288765746  1.0000
  C   C40       1.0  0.01751027092119628  0.40598294313267247  0.8081268963673021  1.0000
  C   C41       1.0  0.01746091355523105  0.4163667124894328  0.3336993096882117  1.0000
  C   C42       1.0  0.017519279462377968  0.6483680234618301  0.5658127312769552  1.0000
  C   C43       1.0  0.01745184142783618  0.1739800724825229  0.5760135433397362  1.0000
  O   O5        1.0  0.087929244521884  0.41738488369128457  0.38230101634406766  1.0000
  O   O6        1.0  0.08796862184970866  0.40354530184931336  0.7599471903585611  1.0000
  O   O7        1.0  0.08797494660354466  0.5992743290534004  0.5642767852152106  1.0000
  O   O8        1.0  0.08792285639952047  0.2216558664224626  0.5779713239175563  1.0000
  O   O9        1.0  0.9470462368371505  0.6006921716294817  0.563854747868787  1.0000
  O   O10       1.0  0.9470399123061197  0.40496470474234214  0.7595250842542218  1.0000
  O   O11       1.0  0.9470005348678903  0.4188042414438182  0.38187734869285794  1.0000
  O   O12       1.0  0.9469941467506462  0.223075214878927  0.5775477536394695  1.0000
