data_image0
_chemical_formula_structural       NC9NC3OH6C7OC3FC3H9C6NCOC6H11Zn2C4O8
_chemical_formula_sum              "N3 C42 O11 H26 F1 Zn2"
_cell_length_a       15.78231758774541
_cell_length_b       10.29937835083307
_cell_length_c       10.299662537453274
_cell_angle_alpha    85.53091033731847
_cell_angle_beta     90.07028812251602
_cell_angle_gamma    89.65202187042591

_space_group_name_H-M_alt    "P 1"
_space_group_IT_number       1

loop_
  _space_group_symop_operation_xyz
  'x, y, z'

loop_
  _atom_site_type_symbol
  _atom_site_label
  _atom_site_symmetry_multiplicity
  _atom_site_fract_x
  _atom_site_fract_y
  _atom_site_fract_z
  _atom_site_occupancy
  N   N1        1.0  0.7984081106652277  0.41385247351708854  0.5696771839794521  1.0000
  C   C1        1.0  0.7498541356363098  0.33177685496545317  0.593769719242556  1.0000
  C   C2        1.0  0.6895725782998434  0.229901061931981  0.6236747620940828  1.0000
  C   C3        1.0  0.7092009738112592  0.10192867800220107  0.6611609040290034  1.0000
  C   C4        1.0  0.6324538119142933  0.03990822379621095  0.6794027082027685  1.0000
  C   C5        1.0  0.5706984588091025  0.1346224190653762  0.6516999538531101  1.0000
  C   C6        1.0  0.47760278610308154  0.11711117826155082  0.6569135374748674  1.0000
  C   C7        1.0  0.4238863895566136  0.2244816507820453  0.6253439585489693  1.0000
  C   C8        1.0  0.3356760559877244  0.21012285051718127  0.6296261329429111  1.0000
  C   C9        1.0  0.281263998489191  0.32061732565986945  0.5971297741762782  1.0000
  N   N2        1.0  0.23752959540836813  0.4094406284210981  0.5710056067657958  1.0000
  C   C10       1.0  0.3005007887111594  0.08823377110058916  0.6655269050766761  1.0000
  C   C11       1.0  0.35328631147260153  0.9810852824151708  0.6970355719531427  1.0000
  C   C12       1.0  0.4413108772783266  0.9950496238711819  0.6928697638427963  1.0000
  O   O1        1.0  0.6071868794350628  0.24687108782627765  0.6187711282956516  1.0000
  H   H1        1.0  0.7716498574753574  0.05877181785464969  0.673751725363666  1.0000
  H   H2        1.0  0.623694417348831  0.9379303677309392  0.7092896561327753  1.0000
  H   H3        1.0  0.45051722295801555  0.3193329690089719  0.5974020704273977  1.0000
  H   H4        1.0  0.23238123928012522  0.07607261423109835  0.6691515616433983  1.0000
  H   H5        1.0  0.32592533571458204  0.8868824168697997  0.724786858428798  1.0000
  H   H6        1.0  0.4803746190963246  0.9101804720493425  0.7178350969914973  1.0000
  C   C13       1.0  0.01788357840242316  0.030262422179951898  0.570405145860255  1.0000
  C   C14       1.0  0.9294811747182666  0.031164373835387726  0.5541126346663887  1.0000
  C   C15       1.0  0.8847856380194253  0.9143319999414663  0.5473721944319894  1.0000
  C   C16       1.0  0.9296883573572227  0.7959182867397387  0.5541201367993229  1.0000
  C   C17       1.0  0.018062191850808818  0.7930206454222157  0.5702888903490846  1.0000
  C   C18       1.0  0.061622268824193416  0.910718054413043  0.5786796986177634  1.0000
  C   C19       1.0  0.7915437119970424  0.915246245061796  0.5287955201766579  1.0000
  O   O2        1.0  0.7588260890305183  0.8309100331658422  0.46203431214604995  1.0000
  C   C20       1.0  0.7354179769126407  0.011735770232415232  0.585965707389845  1.0000
  C   C21       1.0  0.6599501569826834  0.05251652152877706  0.5219553800034478  1.0000
  C   C22       1.0  0.6061177605916122  0.1422935721600247  0.5758544253571345  1.0000
  F   F1        1.0  0.5338311007802405  0.18173403073523287  0.5129151012474646  1.0000
  C   C23       1.0  0.6267225711695477  0.19133795796479403  0.6945240237980073  1.0000
  C   C24       1.0  0.7009737814676861  0.1503166173043602  0.7597452561490052  1.0000
  C   C25       1.0  0.7549813173816021  0.06060926019314539  0.7062514602510943  1.0000
  H   H7        1.0  0.18485755237266588  0.23603431001220843  0.5991553616307952  1.0000
  H   H8        1.0  0.8953899793719527  0.12302169155868148  0.5451962064112392  1.0000
  H   H9        1.0  0.8953874266698171  0.7057966336738135  0.5479639502617362  1.0000
  H   H10       1.0  0.12977395263682734  0.9092187136667151  0.5912392718786335  1.0000
  H   H11       1.0  0.0520912963382536  0.4645352914103393  0.5754043431476721  1.0000
  H   H12       1.0  0.6430824354719643  0.01571938885280444  0.4297442780769971  1.0000
  H   H13       1.0  0.5850271457924604  0.26072886692244945  0.7362776410947545  1.0000
  H   H14       1.0  0.7165315383617473  0.18761399258704015  0.8521659694677342  1.0000
  H   H15       1.0  0.8114414977149472  0.02845977013301937  0.7595754067251654  1.0000
  C   C26       1.0  0.018031253333054664  0.41178146692653694  0.18897118797935453  1.0000
  C   C27       1.0  0.10453350411846962  0.44328825453249676  0.1854139265229955  1.0000
  C   C28       1.0  0.1483581641634819  0.45727360686520746  0.06693962848953072  1.0000
  C   C29       1.0  0.10438516674029796  0.4429796591312254  0.9502702286948761  1.0000
  C   C30       1.0  0.017914558354609422  0.4115015590795048  0.9517228343291939  1.0000
  C   C31       1.0  0.9752980408459428  0.39563490282799507  0.07164343679559115  1.0000
  N   N3        1.0  0.2365993522123231  0.4914740416010521  0.0667176213071552  1.0000
  C   C32       1.0  0.29655809415867806  0.4510199989628667  0.9726921041185581  1.0000
  O   O3        1.0  0.281080882326296  0.35261332382049826  0.9111088591458891  1.0000
  C   C33       1.0  0.3779258964109875  0.5205340384484214  0.9505770469110928  1.0000
  C   C34       1.0  0.38817806285151324  0.6485064380039502  0.9869422616057553  1.0000
  C   C35       1.0  0.46506127571856415  0.7132921716575056  0.9649742131593073  1.0000
  C   C36       1.0  0.5323087005058649  0.6515870680703015  0.9062121575606112  1.0000
  C   C37       1.0  0.5227444220916149  0.5250541987680875  0.8688428344088255  1.0000
  C   C38       1.0  0.446005571191187  0.45980996419145836  0.8904823100901802  1.0000
  H   H16       1.0  0.8546640806471899  0.35355727758083466  0.4028510099070275  1.0000
  H   H17       1.0  0.13848460287122144  0.4561668533957517  0.27493498451582665  1.0000
  H   H18       1.0  0.13720714402064416  0.4586144634094642  0.8582538743845172  1.0000
  H   H19       1.0  0.9086172297206798  0.3713297413540475  0.07352158295061595  1.0000
  H   H20       1.0  0.9844712627484303  0.4011100919443895  0.6246997327583492  1.0000
  H   H21       1.0  0.25973482418256877  0.5384473259198403  0.145702971798795  1.0000
  H   H22       1.0  0.33670589712217636  0.6995608375755498  0.03055266463230999  1.0000
  H   H23       1.0  0.4723733273084325  0.8117022263075973  0.9930971070155743  1.0000
  H   H24       1.0  0.591732593819694  0.7019702283514939  0.8892666011419919  1.0000
  H   H25       1.0  0.5748436919975193  0.47741094701088027  0.8230368244413757  1.0000
  H   H26       1.0  0.44014548392302255  0.36160795178697924  0.8609887371492189  1.0000
  Zn  Zn1       1.0  0.9251290800117041  0.4125758384588649  0.5700680322311895  1.0000
  Zn  Zn2       1.0  0.110808593462284  0.4107066596913862  0.570625376641263  1.0000
  C   C39       1.0  0.01793349252632881  0.4063806143388653  0.8075472298729938  1.0000
  C   C40       1.0  0.01800620892642857  0.41690350203802273  0.3331463123046321  1.0000
  C   C41       1.0  0.018024873825501553  0.6488450261644878  0.5651355817139865  1.0000
  C   C42       1.0  0.017914763891800023  0.17443753046014665  0.5755580297511758  1.0000
  O   O4        1.0  0.08846221014545175  0.4179074942439913  0.3817443112468373  1.0000
  O   O5        1.0  0.0884039455125698  0.4039569790739328  0.759371868738488  1.0000
  O   O6        1.0  0.08847678696675998  0.5997500670708826  0.5636227446903408  1.0000
  O   O7        1.0  0.08838930534849787  0.22211441621118966  0.5774933377269518  1.0000
  O   O8        1.0  0.9475483047621861  0.601168082578337  0.5632000709484744  1.0000
  O   O9        1.0  0.9474754636801479  0.4053765549729156  0.7589491255120597  1.0000
  O   O10       1.0  0.9475337285977232  0.4193270254576096  0.3813200065984894  1.0000
  O   O11       1.0  0.9474608237802293  0.22353393809993505  0.5770691304496116  1.0000
