data_image0
_chemical_formula_structural       NC9NC3OH6C7OC6OCH12C6SCOC6H10Zn2C4O8
_chemical_formula_sum              "N2 C43 O12 H28 S1 Zn2"
_cell_length_a       15.78231758774541
_cell_length_b       10.299359160628079
_cell_length_c       10.302041481415108
_cell_angle_alpha    85.54689826212588
_cell_angle_beta     90.08006893222067
_cell_angle_gamma    89.65438836023732

_space_group_name_H-M_alt    "P 1"
_space_group_IT_number       1

loop_
  _space_group_symop_operation_xyz
  'x, y, z'

loop_
  _atom_site_type_symbol
  _atom_site_label
  _atom_site_symmetry_multiplicity
  _atom_site_fract_x
  _atom_site_fract_y
  _atom_site_fract_z
  _atom_site_occupancy
  N   N1        1.0  0.798287469313425  0.4137865845740689  0.570364394294206  1.0000
  C   C1        1.0  0.7497339382252639  0.3317131170285781  0.5944307632726955  1.0000
  C   C2        1.0  0.6894529319661757  0.22983999392653387  0.6243033273230918  1.0000
  C   C3        1.0  0.7090820108826296  0.10187096160502906  0.661748689152112  1.0000
  C   C4        1.0  0.6323351884867755  0.039852133837440906  0.6799707123200183  1.0000
  C   C5        1.0  0.5705793341774343  0.13456384970557367  0.652298130297807  1.0000
  C   C6        1.0  0.4774837643484268  0.11705306991197695  0.6575061141361371  1.0000
  C   C7        1.0  0.42376678125898487  0.22442072703244564  0.6259707777771142  1.0000
  C   C8        1.0  0.3355565328436447  0.2100623049883361  0.6302483588144792  1.0000
  C   C9        1.0  0.2811438708186773  0.3205538825812113  0.597787240841358  1.0000
  N   N2        1.0  0.23740898163331442  0.4093748560496493  0.5716914027821718  1.0000
  C   C10       1.0  0.3003819383627052  0.08817642344057397  0.6661102435861102  1.0000
  C   C11       1.0  0.3531680469393312  0.9810307444581964  0.6975847376760573  1.0000
  C   C12       1.0  0.4411925297892713  0.994994718047652  0.6934233970317623  1.0000
  O   O1        1.0  0.6070671499657854  0.24680957728536934  0.6194050855780135  1.0000
  H   H1        1.0  0.771531119356715  0.05871523029550052  0.6743257698199061  1.0000
  H   H2        1.0  0.6235763402026899  0.9378769490136413  0.709825160102437  1.0000
  H   H3        1.0  0.4503970905806604  0.31926955661626377  0.5980591520186938  1.0000
  H   H4        1.0  0.23226246081609464  0.0760155868441097  0.669731010313066  1.0000
  H   H5        1.0  0.325807591725296  0.8868303505543111  0.725305968579085  1.0000
  H   H6        1.0  0.4802567365322242  0.9101277919428509  0.7183616610047783  1.0000
  C   C13       1.0  0.017752561562147884  0.030203408990089775  0.570996119904357  1.0000
  C   C14       1.0  0.9476731828353708  0.03621713203485721  0.4864059878616269  1.0000
  C   C15       1.0  0.9129345147151189  0.9222599575606156  0.44264997878126366  1.0000
  C   C16       1.0  0.9478750013383704  0.8009535045103893  0.4866616477905268  1.0000
  C   C17       1.0  0.017951980557574965  0.7929479275102652  0.5710709525896005  1.0000
  C   C18       1.0  0.05260421498800438  0.9081623082009178  0.6125416802187877  1.0000
  C   C19       1.0  0.8383490678535824  0.9307518602752568  0.3545104735696478  1.0000
  O   O2        1.0  0.7845032314310667  0.020161576755118205  0.365911737927346  1.0000
  C   C20       1.0  0.8248464757793392  0.8378839953664016  0.2534444420037494  1.0000
  C   C21       1.0  0.8937675632254025  0.7838645393826793  0.1896116643528225  1.0000
  C   C22       1.0  0.880152686649357  0.6976474020011801  0.09350989077119554  1.0000
  C   C23       1.0  0.7978400019821296  0.6645718831828438  0.05850610734962669  1.0000
  C   C24       1.0  0.7286337677317174  0.7196294264035772  0.12102655346366609  1.0000
  C   C25       1.0  0.7421711625288366  0.8059062157644817  0.21717450415948147  1.0000
  O   O3        1.0  0.787581643889084  0.5774809119386571  0.9615981633947399  1.0000
  C   C26       1.0  0.7077349402546824  0.5354539413396083  0.9164986815976048  1.0000
  H   H7        1.0  0.1497708045539594  0.22609549294503006  0.7310351575499603  1.0000
  H   H8        1.0  0.9204245227138818  0.12983017524539875  0.453346129582445  1.0000
  H   H9        1.0  0.9197479220522085  0.7126092914747802  0.4561319014664482  1.0000
  H   H10       1.0  0.10666113327266369  0.9027189740936135  0.6776594461769903  1.0000
  H   H11       1.0  0.04461730611578596  0.46237348539885187  0.6038624413111218  1.0000
  H   H12       1.0  0.9581850855911757  0.80929748002305  0.2129323514543855  1.0000
  H   H13       1.0  0.9339287982783556  0.6566758561696839  0.04550175519288602  1.0000
  H   H14       1.0  0.664180905488239  0.6964743916034568  0.09606150640699718  1.0000
  H   H15       1.0  0.6879215434031316  0.8468370830500646  0.26413067919936495  1.0000
  H   H16       1.0  0.7183151550548914  0.4669782769005949  0.8400726935342253  1.0000
  H   H17       1.0  0.670504988062578  0.6201907113742106  0.8738855176081204  1.0000
  H   H18       1.0  0.6721631285442955  0.4842141609245302  0.9979089386562068  1.0000
  C   C27       1.0  0.017868186289792476  0.4117048026681087  0.18974654640490551  1.0000
  C   C28       1.0  0.05674502181230667  0.5344154669805741  0.17896302969124767  1.0000
  C   C29       1.0  0.07646568804374287  0.594944842953453  0.05664321956090257  1.0000
  C   C30       1.0  0.056825332787215466  0.534010788287828  0.9438578211705182  1.0000
  C   C31       1.0  0.017836371695991504  0.4114465575115607  0.952320516022696  1.0000
  C   C32       1.0  0.9986221291697777  0.3508735373280658  0.07583527930958622  1.0000
  S   S1        1.0  0.12688616380896933  0.7509747868510834  0.04428827886494613  1.0000
  C   C33       1.0  0.2312444786395509  0.6801240216740863  0.04716526434663093  1.0000
  O   O4        1.0  0.2643983211554153  0.6566176464788036  0.9402029332245858  1.0000
  C   C34       1.0  0.277939329471798  0.6483114875432012  0.1708278326065713  1.0000
  C   C35       1.0  0.3530859534112003  0.5738314466337411  0.171240021602461  1.0000
  C   C36       1.0  0.39724019474768957  0.5424903835990689  0.2873225212784911  1.0000
  C   C37       1.0  0.3671471029294333  0.5851412182133946  0.40417327309663587  1.0000
  C   C38       1.0  0.2929111151517263  0.6594532957803803  0.4051440873216481  1.0000
  C   C39       1.0  0.24850406388921753  0.6911710420002619  0.28936026604953424  1.0000
  H   H19       1.0  0.9444652011520301  0.1805310502806008  0.41737958004902875  1.0000
  H   H20       1.0  0.07197907961593941  0.5831913193055263  0.2653281590491492  1.0000
  H   H21       1.0  0.0724184440702833  0.5824514953986941  0.8499383031664505  1.0000
  H   H22       1.0  0.9686528269599779  0.25627212235173635  0.08322805327197202  1.0000
  H   H23       1.0  0.0032440899272558887  0.3646754447861198  0.6282125906677458  1.0000
  H   H24       1.0  0.37755233269171184  0.539126945794119  0.08199195322831732  1.0000
  H   H25       1.0  0.45482195572700745  0.4849260872787797  0.2866439695721841  1.0000
  H   H26       1.0  0.40140406009956897  0.5607453195046301  0.493936524530894  1.0000
  H   H27       1.0  0.26976007623721143  0.692757511992433  0.4957500336946066  1.0000
  H   H28       1.0  0.19156555909159967  0.7496709543394915  0.29326811177385403  1.0000
  Zn  Zn1       1.0  0.925008447357345  0.4125099834307664  0.5707548317950946  1.0000
  Zn  Zn2       1.0  0.11068797188243606  0.4106408538960775  0.5713115782798914  1.0000
  C   C40       1.0  0.017839120343587922  0.4063216146058881  0.8081771687747543  1.0000
  C   C41       1.0  0.017859326933910902  0.41683084092245926  0.3338893749796288  1.0000
  C   C42       1.0  0.01791013283184495  0.6487748087210905  0.5658827015735755  1.0000
  C   C43       1.0  0.017788250675390804  0.17437608708484587  0.5761839110615803  1.0000
  O   O5        1.0  0.08832076405217903  0.4178361954046097  0.38247630684420475  1.0000
  O   O6        1.0  0.08830414576758683  0.4038966544382152  0.7600124207481265  1.0000
  O   O7        1.0  0.08836053929958165  0.5996806840302424  0.564357921493805  1.0000
  O   O8        1.0  0.08826430716683387  0.22205217577378145  0.5781307085557119  1.0000
  O   O9        1.0  0.9474320487096388  0.6010986621923202  0.5639357013224544  1.0000
  O   O10       1.0  0.9473756555845982  0.40531619296196286  0.7595901314991822  1.0000
  O   O11       1.0  0.9473922739788934  0.41925568919944567  0.38205245652580655  1.0000
  O   O12       1.0  0.9473358170835899  0.22347166024667664  0.5777069555833081  1.0000
