data_image0
_chemical_formula_structural       NC9NC3OH6C7OC6H10C6SCOC6H10Zn2C4O8
_chemical_formula_sum              "N2 C42 O11 H26 S1 Zn2"
_cell_length_a       15.78231758774541
_cell_length_b       10.299379429549807
_cell_length_c       10.302041481415108
_cell_angle_alpha    85.5191038852169
_cell_angle_beta     90.08006893222067
_cell_angle_gamma    89.62936124648849

_space_group_name_H-M_alt    "P 1"
_space_group_IT_number       1

loop_
  _space_group_symop_operation_xyz
  'x, y, z'

loop_
  _atom_site_type_symbol
  _atom_site_label
  _atom_site_symmetry_multiplicity
  _atom_site_fract_x
  _atom_site_fract_y
  _atom_site_fract_z
  _atom_site_occupancy
  N   N1        1.0  0.7978835999289848  0.41384134160288744  0.5696754641505071  1.0000
  C   C1        1.0  0.749353514360238  0.3317646952896274  0.5937818270618906  1.0000
  C   C2        1.0  0.6891016096897257  0.22988762656410766  0.6237040333044706  1.0000
  C   C3        1.0  0.7087672448833965  0.10191363790473185  0.6612117537134832  1.0000
  C   C4        1.0  0.6320381390977206  0.03989240810081385  0.6794639983026363  1.0000
  C   C5        1.0  0.5702552289634025  0.13460779222567698  0.6517452638011645  1.0000
  C   C6        1.0  0.47716466135179714  0.11709633422627186  0.6569617805426722  1.0000
  C   C7        1.0  0.4234170070775645  0.22446814977769414  0.6253741245363593  1.0000
  C   C8        1.0  0.33521086036126135  0.21010917162098752  0.629658702350939  1.0000
  C   C9        1.0  0.2807666347566737  0.3206050286366302  0.5971437424618886  1.0000
  N   N2        1.0  0.23700637252542714  0.40942944220886957  0.5710046224486343  1.0000
  C   C10       1.0  0.30007108441410174  0.0882185693404065  0.665579981417866  1.0000
  C   C11       1.0  0.3528878007641275  0.9810687405244573  0.6971066869864222  1.0000
  C   C12       1.0  0.44090829459515957  0.9950332549492219  0.6929385417773954  1.0000
  O   O1        1.0  0.606710980072828  0.24685786716780278  0.6187975223781526  1.0000
  H   H1        1.0  0.77122868144068  0.05875623514093342  0.6738098639231445  1.0000
  H   H2        1.0  0.6233084215576754  0.93791327370061  0.7093681380113337  1.0000
  H   H3        1.0  0.4500202214056698  0.319320652928762  0.5974162794839462  1.0000
  H   H4        1.0  0.2319550807932196  0.0760572617454991  0.6692066740511748  1.0000
  H   H5        1.0  0.3255542553082658  0.8868646981677291  0.7248738212044314  1.0000
  H   H6        1.0  0.4799967448509447  0.9101630418838786  0.717918160919738  1.0000
  C   C13       1.0  0.01745826847634757  0.030243309551016395  0.5704941076555925  1.0000
  C   C14       1.0  0.06881662949203049  0.019801112818189193  0.6823705480525426  1.0000
  C   C15       1.0  0.0939260327599094  0.897302805270154  0.7396463691776831  1.0000
  C   C16       1.0  0.06871350621483541  0.7845801693546909  0.6820940144267922  1.0000
  C   C17       1.0  0.01743979384024419  0.7930174226006453  0.5701972096415653  1.0000
  C   C18       1.0  0.9919255482484426  0.9163215913576509  0.5152428448421729  1.0000
  C   C19       1.0  0.14889253944515657  0.8861863270549291  0.8569843919119511  1.0000
  O   O2        1.0  0.2026465426514752  0.7948556690365615  0.8695005683656232  1.0000
  C   C20       1.0  0.14287385031846567  0.9785777875191548  0.9601281846643974  1.0000
  C   C21       1.0  0.21534737430410988  0.0072903315568038085  0.03189441933700865  1.0000
  C   C22       1.0  0.21009517446071024  0.09306956501497421  0.1303490749820373  1.0000
  C   C23       1.0  0.13247715338853294  0.1501333394869382  0.15886602698355423  1.0000
  C   C24       1.0  0.059873632169061386  0.12111247868071029  0.08934300289542496  1.0000
  C   C25       1.0  0.06478557461246326  0.03541634613791378  0.9907996697565915  1.0000
  H   H7        1.0  0.9216112084581236  0.2573483565182828  0.358219346760662  1.0000
  H   H8        1.0  0.09012866007903675  0.1071608916824458  0.7242628266177462  1.0000
  H   H9        1.0  0.08854703637967276  0.6900648825336426  0.725581664782537  1.0000
  H   H10       1.0  0.9523325212290337  0.9235676414574517  0.42899393694478327  1.0000
  H   H11       1.0  0.9983324956548274  0.46884540704132477  0.526581399491703  1.0000
  H   H12       1.0  0.2761334137594771  0.9642415430706991  0.011035719054398818  1.0000
  H   H13       1.0  0.2662597842488714  0.11525725181652291  0.18460319906603484  1.0000
  H   H14       1.0  0.1285271905124461  0.21641776616017117  0.23517822598844884  1.0000
  H   H15       1.0  0.9996327312593631  0.16459386237500384  0.11220273745206111  1.0000
  H   H16       1.0  0.007450668733402388  0.012554462937285793  0.9397010517969098  1.0000
  C   C26       1.0  0.017464911597639077  0.4117594790679322  0.18905863070166284  1.0000
  C   C27       1.0  0.056306692974781525  0.5344748960576793  0.17821531778076904  1.0000
  C   C28       1.0  0.07601006808032795  0.5950066163792891  0.055866012030546086  1.0000
  C   C29       1.0  0.05638711955224096  0.53407020169142  0.94311030645766  1.0000
  C   C30       1.0  0.01743317077544848  0.4115012239093532  0.9516327261608462  1.0000
  C   C31       1.0  0.9982362318427483  0.3509258576867542  0.07517700633518931  1.0000
  S   S1        1.0  0.12638597154724307  0.75104260343522  0.04343503883234057  1.0000
  C   C32       1.0  0.23076452596365127  0.6801890941542452  0.04634654948802819  1.0000
  O   O3        1.0  0.26392508342884735  0.6566818085391886  0.9393956728886228  1.0000
  C   C33       1.0  0.27746846452435614  0.6483753278997377  0.17002461981451056  1.0000
  C   C34       1.0  0.35263636480673943  0.5738924023216925  0.1704731025097792  1.0000
  C   C35       1.0  0.39679955918888155  0.5425501254238314  0.2865708745071738  1.0000
  C   C36       1.0  0.36669428351875566  0.5852026119373934  0.4034008428167324  1.0000
  C   C37       1.0  0.2924370673793206  0.659517567667617  0.4043354451899448  1.0000
  C   C38       1.0  0.24802095546594627  0.6912365423399129  0.2885361680408973  1.0000
  H   H17       1.0  0.9441279647163535  0.18057677314531517  0.41680431399757145  1.0000
  H   H18       1.0  0.07152681722318799  0.5832526375084592  0.26455667894386803  1.0000
  H   H19       1.0  0.07196639301934948  0.582512784947685  0.849167183573142  1.0000
  H   H20       1.0  0.9682939539488181  0.25632077872573067  0.08261587902783973  1.0000
  H   H21       1.0  0.0028542498779442482  0.3647282997031729  0.6275475921025189  1.0000
  H   H22       1.0  0.37711265794945925  0.5391865573503796  0.08124194544106955  1.0000
  H   H23       1.0  0.4543977642745267  0.4849835995945999  0.28592037355433164  1.0000
  H   H24       1.0  0.40095820974398233  0.560805768356933  0.49317598223336767  1.0000
  H   H25       1.0  0.2692765146149452  0.6928230737772725  0.49492516260818586  1.0000
  H   H26       1.0  0.19106573928922543  0.749738720425204  0.2924155070913994  1.0000
  Zn  Zn1       1.0  0.9246049426532063  0.41256469101585247  0.5700665237318556  1.0000
  Zn  Zn2       1.0  0.1102850011232388  0.4106954890883563  0.5706241810328205  1.0000
  C   C39       1.0  0.017437383440003673  0.40637608251074675  0.8074918762683685  1.0000
  C   C40       1.0  0.017454587911894803  0.41688571585764  0.33319896138716376  1.0000
  C   C41       1.0  0.01743913552974541  0.648838667022408  0.5650792630077457  1.0000
  C   C42       1.0  0.017452772497448477  0.1744215715631583  0.5756116442886037  1.0000
  O   O4        1.0  0.08791573783554751  0.4178911092779334  0.38178540334823174  1.0000
  O   O5        1.0  0.08790310159031711  0.4039510284225236  0.7593283099110075  1.0000
  O   O6        1.0  0.08790356647199293  0.599742640878802  0.5635784062150879  1.0000
  O   O7        1.0  0.08791520959767585  0.22209950678323986  0.5775352094964838  1.0000
  O   O8        1.0  0.9469746708152784  0.6011606739602515  0.5631554950710613  1.0000
  O   O9        1.0  0.9469742058948162  0.4053706219260771  0.7589053289290324  1.0000
  O   O10       1.0  0.9469868422625266  0.4193106580508428  0.3813608613185988  1.0000
  O   O11       1.0  0.9469863140173599  0.22351904623384744  0.5771107648173879  1.0000
