data_image0
_chemical_formula_structural       NC9NC3OH6C6NCOC6H11C7OC4NC3H9Zn2C4O8
_chemical_formula_sum              "N4 C43 O11 H26 Zn2"
_cell_length_a       15.78231758774541
_cell_length_b       10.29965916528486
_cell_length_c       10.299375074045738
_cell_angle_alpha    85.55751919023885
_cell_angle_beta     90.07708282106614
_cell_angle_gamma    89.64856781770791

_space_group_name_H-M_alt    "P 1"
_space_group_IT_number       1

loop_
  _space_group_symop_operation_xyz
  'x, y, z'

loop_
  _atom_site_type_symbol
  _atom_site_label
  _atom_site_symmetry_multiplicity
  _atom_site_fract_x
  _atom_site_fract_y
  _atom_site_fract_z
  _atom_site_occupancy
  N   N1        1.0  0.7982425490681923  0.4137707223173499  0.5703016977803701  1.0000
  C   C1        1.0  0.7496936222608994  0.33170017787711026  0.5943562998977596  1.0000
  C   C2        1.0  0.68941833102168  0.22983068304731114  0.6242142585048944  1.0000
  C   C3        1.0  0.7090545916122377  0.10186621111685734  0.6616412527922597  1.0000
  C   C4        1.0  0.6323112472130723  0.03984959096184526  0.6798543938121173  1.0000
  C   C5        1.0  0.5705500762455343  0.13455793021696105  0.6521954166602053  1.0000
  C   C6        1.0  0.47745548627888634  0.11704777159150281  0.6574009091462376  1.0000
  C   C7        1.0  0.42373248167766087  0.22441160650168612  0.6258809524869438  1.0000
  C   C8        1.0  0.3355230364835591  0.21005369355741  0.6301564925463821  1.0000
  C   C9        1.0  0.2811041780269585  0.32054133801082374  0.5977111995983804  1.0000
  N   N2        1.0  0.23736430775359674  0.40935914978629806  0.5716280824812245  1.0000
  C   C10       1.0  0.3003552756290332  0.0881721489395959  0.6660009342808053  1.0000
  C   C11       1.0  0.3531473931206395  0.9810302841172422  0.6974600816067138  1.0000
  C   C12       1.0  0.4411710948581734  0.9949937626358415  0.6933007255390369  1.0000
  O   O1        1.0  0.6070315944020234  0.24679965938072312  0.6193184700122369  1.0000
  H   H1        1.0  0.7715061237258405  0.05871201946143789  0.6742121259780756  1.0000
  H   H2        1.0  0.6235581213022788  0.9378780396777544  0.7096942089576319  1.0000
  H   H3        1.0  0.45035747338612114  0.31925706134532983  0.5979828992705318  1.0000
  H   H4        1.0  0.23223647844092501  0.07601174359630813  0.6696199718508484  1.0000
  H   H5        1.0  0.3257922191515162  0.8868332418676724  0.7251678328673674  1.0000
  H   H6        1.0  0.4802400608056818  0.910129857334253  0.7182268359500223  1.0000
  C   C13       1.0  0.017732949697326195  0.03020500870608478  0.5708491868868895  1.0000
  C   C14       1.0  0.018319310074760065  0.039532039454193146  0.43403058117187765  1.0000
  C   C15       1.0  0.019864137679304505  0.9273821092008341  0.3651974463984735  1.0000
  C   C16       1.0  0.018478932626979416  0.8043400304350983  0.4343274571104454  1.0000
  C   C17       1.0  0.01788197524132662  0.7929147683508546  0.5710918054764147  1.0000
  C   C18       1.0  0.017810510614419517  0.9064523819502076  0.6385816181692654  1.0000
  N   N3        1.0  0.01916195215675165  0.9405151711823126  0.2251247062732986  1.0000
  C   C19       1.0  0.05888583707637629  0.8490175190841658  0.14551602756703175  1.0000
  O   O2        1.0  0.11733417328368967  0.7755938239544667  0.19267211631587866  1.0000
  C   C20       1.0  0.03426796867094639  0.8431208254807897  0.007071014387696195  1.0000
  C   C21       1.0  0.955921928872446  0.8937828334559375  0.9604871218114384  1.0000
  C   C22       1.0  0.9332269936590711  0.8870470988434965  0.8298917759169147  1.0000
  C   C23       1.0  0.9880889458065863  0.8294414577138236  0.7445981446646255  1.0000
  C   C24       1.0  0.06568920187375138  0.7779999443395901  0.7898035215618973  1.0000
  C   C25       1.0  0.08870761379210079  0.7843761364132453  0.9202953666148783  1.0000
  H   H7        1.0  0.015818152017998743  0.21988321385098097  0.8289304924888652  1.0000
  H   H8        1.0  0.018225944727498833  0.134162750336295  0.38020560518379454  1.0000
  H   H9        1.0  0.016378745511664183  0.717590613140378  0.3815141123259609  1.0000
  H   H10       1.0  0.017369822770350485  0.8983967919530114  0.7440533579011126  1.0000
  H   H11       1.0  0.016525713806800457  0.46109428123680946  0.6235508499606028  1.0000
  H   H12       1.0  0.9949892814142228  0.026908433326757075  0.17910982184189472  1.0000
  H   H13       1.0  0.9115159089315258  0.9369012329059772  0.024837370866622743  1.0000
  H   H14       1.0  0.872844027653861  0.9261002798706198  0.7949225556958437  1.0000
  H   H15       1.0  0.9703524421844503  0.8243007621544242  0.6435839118706643  1.0000
  H   H16       1.0  0.10809057552126133  0.7331065812987603  0.7236834429631376  1.0000
  H   H17       1.0  0.1493029309232421  0.7441355466576243  0.953046450583233  1.0000
  C   C26       1.0  0.017836299543558587  0.4117019681791658  0.1895838791273865  1.0000
  C   C27       1.0  0.08307551696618165  0.504155257321858  0.1813669960366271  1.0000
  C   C28       1.0  0.11532231999674325  0.551872949142187  0.05996355175478785  1.0000
  C   C29       1.0  0.08293828370386858  0.5039189060435778  0.9461411898260286  1.0000
  C   C30       1.0  0.017778611320942606  0.41141787020209675  0.9523571705514366  1.0000
  C   C31       1.0  0.985452783768679  0.3660974729791313  0.07455741117553383  1.0000
  C   C32       1.0  0.18481864466722842  0.6484912973318093  0.051226818644593664  1.0000
  O   O3        1.0  0.2389648137558904  0.6432624212189864  0.961753943488918  1.0000
  C   C33       1.0  0.19287693868443379  0.7510533817003977  0.14391025128287938  1.0000
  C   C34       1.0  0.27346090199032247  0.796803714394918  0.17592499714479493  1.0000
  C   C35       1.0  0.2816907387696703  0.8947305021681256  0.2621977106035127  1.0000
  C   C36       1.0  0.3644442347210166  0.9402497158130649  0.2952500520490824  1.0000
  N   N4        1.0  0.43096872144762277  0.976836418478541  0.32181664776755214  1.0000
  C   C37       1.0  0.20934470358848345  0.9483071224059849  0.3161894018084681  1.0000
  C   C38       1.0  0.12904340136037962  0.9045655521067559  0.2836751952279659  1.0000
  C   C39       1.0  0.12064510237920323  0.8069104348360454  0.1976776174384154  1.0000
  H   H18       1.0  0.895613030855652  0.2357592300123541  0.41252721350704347  1.0000
  H   H19       1.0  0.10953523274817889  0.5380899271736685  0.26964102766551235  1.0000
  H   H20       1.0  0.10816616949938362  0.5399004500421598  0.8524837360738471  1.0000
  H   H21       1.0  0.9351583954842491  0.29482207032802243  0.0800882094761246  1.0000
  H   H22       1.0  0.9932356595335183  0.3750785641004206  0.6273513075263843  1.0000
  H   H23       1.0  0.32978247931151605  0.7555187439841524  0.13470152349351228  1.0000
  H   H24       1.0  0.21501184436781462  0.024126367328123788  0.3829098060128977  1.0000
  H   H25       1.0  0.0731441544885636  0.9468249541582292  0.3247514366211768  1.0000
  H   H26       1.0  0.05770342333067102  0.776149976589626  0.17217421845267955  1.0000
  Zn  Zn1       1.0  0.924963598183297  0.41249416609404466  0.5706919564645616  1.0000
  Zn  Zn2       1.0  0.11064322727213116  0.4106251028354042  0.5712484372373188  1.0000
  C   C40       1.0  0.01778663551309556  0.40629801203929805  0.8081750059589199  1.0000
  C   C41       1.0  0.01782221786866356  0.4168228750133556  0.33376552181336905  1.0000
  C   C42       1.0  0.017849847067169744  0.6487483881565146  0.5658705389191752  1.0000
  C   C43       1.0  0.01775894264498845  0.17437093924247837  0.576070057408703  1.0000
  O   O4        1.0  0.0882819423845227  0.41782653275370385  0.3823653779650873  1.0000
  O   O5        1.0  0.08825345297832099  0.403874798972768  0.7599971316625629  1.0000
  O   O6        1.0  0.08830354711105914  0.5996565529495914  0.564334557766375  1.0000
  O   O7        1.0  0.08823178490108163  0.22204478874094047  0.5780278542951509  1.0000
  O   O8        1.0  0.9473749771910027  0.6010744808277444  0.5639125392099995  1.0000
  O   O9        1.0  0.9473248833645217  0.4052942871438181  0.7595750443538678  1.0000
  O   O10       1.0  0.9473533729362719  0.4192459762509235  0.3819417291689544  1.0000
  O   O11       1.0  0.9473032154401899  0.22346422291333656  0.5776043028684119  1.0000
