data_image0
_chemical_formula_structural       NC9NC3OH6C7OC6OCH12C7OC4NC3H9Zn2C4O8
_chemical_formula_sum              "N3 C44 O12 H27 Zn2"
_cell_length_a       15.78231758774541
_cell_length_b       10.299359160628079
_cell_length_c       10.299375074045738
_cell_angle_alpha    85.54493941547133
_cell_angle_beta     90.07708282106614
_cell_angle_gamma    89.65438836023732

_space_group_name_H-M_alt    "P 1"
_space_group_IT_number       1

loop_
  _space_group_symop_operation_xyz
  'x, y, z'

loop_
  _atom_site_type_symbol
  _atom_site_label
  _atom_site_symmetry_multiplicity
  _atom_site_fract_x
  _atom_site_fract_y
  _atom_site_fract_z
  _atom_site_occupancy
  N   N1        1.0  0.7983359111919817  0.413835163880121  0.5699906047645675  1.0000
  C   C1        1.0  0.7497815646371949  0.3317608785545614  0.5940632660854586  1.0000
  C   C2        1.0  0.6894995461739379  0.22988674037676948  0.623943640553853  1.0000
  C   C3        1.0  0.7091273562889834  0.10191643565432185  0.6613987927687097  1.0000
  C   C4        1.0  0.6323799164567488  0.03989698869871372  0.6796255802286086  1.0000
  C   C5        1.0  0.5706249998072228  0.1346096448867613  0.6519457629910901  1.0000
  C   C6        1.0  0.477529253510506  0.11709868812482394  0.6571551084979612  1.0000
  C   C7        1.0  0.4238133389667325  0.22446741682237858  0.6256115269759772  1.0000
  C   C8        1.0  0.33560294560952025  0.21010884942520325  0.629890226420716  1.0000
  C   C9        1.0  0.2811913834994741  0.3206015300534104  0.5974206212317124  1.0000
  N   N2        1.0  0.23745737854741722  0.4094233902636857  0.5713179602093914  1.0000
  C   C10       1.0  0.3004271359818259  0.08822174928336812  0.6657614875655904  1.0000
  C   C11       1.0  0.35321217807436733  0.9810750007913368  0.6972442109108066  1.0000
  C   C12       1.0  0.44123680192748144  0.9950391157839864  0.6930817822511071  1.0000
  O   O1        1.0  0.6071139301459331  0.24685649017884703  0.6190441181247524  1.0000
  H   H1        1.0  0.7715760386003375  0.05876027697305708  0.673979161813659  1.0000
  H   H2        1.0  0.6236200565823475  0.9379207894147602  0.709487833692384  1.0000
  H   H3        1.0  0.4504445940479988  0.3193171948488662  0.5976926035023751  1.0000
  H   H4        1.0  0.23230753574888793  0.0760607896525205  0.6693832009706269  1.0000
  H   H5        1.0  0.3258507835520947  0.8868736649144378  0.724972689748776  1.0000
  H   H6        1.0  0.48030016366045425  0.9101713422719487  0.7180265665303625  1.0000
  C   C13       1.0  0.017800982035267143  0.03025196682997877  0.5706224955443726  1.0000
  C   C14       1.0  0.9477244695667782  0.03626856426448355  0.486010246742979  1.0000
  C   C15       1.0  0.9129872840783727  0.9223128766282505  0.4422427973081733  1.0000
  C   C16       1.0  0.9479262794069778  0.8010049280526398  0.4862659735161883  1.0000
  C   C17       1.0  0.0180003984950583  0.7929964828073246  0.5706973477952129  1.0000
  C   C18       1.0  0.052651227728286676  0.908209454314293  0.6121789182739434  1.0000
  C   C19       1.0  0.8384048237423471  0.9308077743410449  0.3540802473262228  1.0000
  O   O2        1.0  0.7845586009985469  0.020217103403645353  0.36548449263460836  1.0000
  C   C20       1.0  0.8249056561969893  0.837943343676314  0.2529877912474967  1.0000
  C   C21       1.0  0.8938289065576096  0.783926056743243  0.18913832401228858  1.0000
  C   C22       1.0  0.8802172863011647  0.6977121849193814  0.09301142386232364  1.0000
  C   C23       1.0  0.7979057877047228  0.6646378555366613  0.0579984884248923  1.0000
  C   C24       1.0  0.7286974350068922  0.7196932743000336  0.12053528100376032  1.0000
  C   C25       1.0  0.742231571919742  0.8059667965341932  0.2167083703412842  1.0000
  O   O3        1.0  0.7876507132476144  0.5775501772439441  0.961065207122052  1.0000
  C   C26       1.0  0.7078055377673884  0.5355247391343771  0.9159539337089133  1.0000
  H   H7        1.0  0.14981380225249596  0.22613861262616064  0.7307033766613937  1.0000
  H   H8        1.0  0.920476929647971  0.12988273085567315  0.45294174470252924  1.0000
  H   H9        1.0  0.9198002345929974  0.7126617524239647  0.4557282449486113  1.0000
  H   H10       1.0  0.10670593955774987  0.9027639074921755  0.6773137097867781  1.0000
  H   H11       1.0  0.04466461294404089  0.4624209264345144  0.6034974101106603  1.0000
  H   H12       1.0  0.9582456387234969  0.8093582049419654  0.21246510849183164  1.0000
  H   H13       1.0  0.9339950246413787  0.6567422704140092  0.044990736177487944  1.0000
  H   H14       1.0  0.664245418680914  0.6965390878172445  0.09556370663820224  1.0000
  H   H15       1.0  0.6879803617275304  0.8468960682394829  0.26367682244429647  1.0000
  H   H16       1.0  0.7183883421914269  0.4670516716658434  0.8395079634668465  1.0000
  H   H17       1.0  0.6705770294828828  0.6202629571728814  0.8733296281708687  1.0000
  H   H18       1.0  0.6722309675458326  0.48428219238235454  0.9973854761227279  1.0000
  C   C27       1.0  0.017929525051646023  0.41176631544535325  0.18927324133034995  1.0000
  C   C28       1.0  0.08317484787402685  0.5042238187327728  0.18103601436622707  1.0000
  C   C29       1.0  0.11542480206975259  0.5519436855893964  0.059622070050385334  1.0000
  C   C30       1.0  0.08303759900362628  0.5039874566812852  0.9458102601635181  1.0000
  C   C31       1.0  0.017871818067861422  0.41148220451871786  0.9520465952687065  1.0000
  C   C32       1.0  0.9855429976621821  0.3661597415313562  0.0742568084143922  1.0000
  C   C33       1.0  0.18492750719078876  0.6485664377727156  0.05086407656688907  1.0000
  O   O4        1.0  0.23907333097665817  0.6433373233207167  0.9613923519986565  1.0000
  C   C34       1.0  0.1929925741690306  0.7511331970584549  0.1435249409431294  1.0000
  C   C35       1.0  0.2735795587202723  0.7968856151144066  0.17552961967835512  1.0000
  C   C36       1.0  0.2818158623564717  0.8948168665217386  0.261780784848334  1.0000
  C   C37       1.0  0.3645723642906069  0.9403381549933929  0.29482311002377815  1.0000
  N   N3        1.0  0.4310992671177938  0.9769265253297716  0.3213816550254731  1.0000
  C   C38       1.0  0.20947336525042815  0.9483959288536954  0.3157606867920584  1.0000
  C   C39       1.0  0.12916917443095866  0.9046523647551161  0.2832561053203557  1.0000
  C   C40       1.0  0.12076442653341779  0.8069927962333858  0.19728001603984024  1.0000
  H   H19       1.0  0.8956946375153354  0.2358155575729226  0.4122552910095678  1.0000
  H   H20       1.0  0.10963680462253822  0.5381600353722793  0.2693025788445924  1.0000
  H   H21       1.0  0.10826786093645357  0.5399706407668277  0.8521448888566305  1.0000
  H   H22       1.0  0.9352439025162643  0.2948810900519465  0.07980329050275281  1.0000
  H   H23       1.0  0.993326466517349  0.37514124202280574  0.6270487285220816  1.0000
  H   H24       1.0  0.32989840967823203  0.7555987628794028  0.13431523057363282  1.0000
  H   H25       1.0  0.21514551295600137  0.024218629718550932  0.38246440735946896  1.0000
  H   H26       1.0  0.07327271827157089  0.9469136930467268  0.32432304774830767  1.0000
  H   H27       1.0  0.057820716135908556  0.7762309358840866  0.1717833857355977  1.0000
  Zn  Zn1       1.0  0.9250568760062884  0.41255854946967374  0.5703811443484268  1.0000
  Zn  Zn2       1.0  0.11073638166654076  0.4106894010166271  0.5709380363989931  1.0000
  C   C41       1.0  0.017879504156512516  0.40636211298592784  0.8078655572747901  1.0000
  C   C42       1.0  0.01791578154950413  0.41688745569733454  0.333453757186978  1.0000
  C   C43       1.0  0.017958726568409134  0.648823540315965  0.5655077402699495  1.0000
  C   C44       1.0  0.017836495365010974  0.17442446864254535  0.5758116430906011  1.0000
  O   O5        1.0  0.08837557234458138  0.41789115918574615  0.38205339248894443  1.0000
  O   O6        1.0  0.0883461615983947  0.4039387894661015  0.7596882161940732  1.0000
  O   O7        1.0  0.08840918470190706  0.5997294674374514  0.5639825615243752  1.0000
  O   O8        1.0  0.08831248589102425  0.22210049117890973  0.5777589495903259  1.0000
  O   O9        1.0  0.9474807084185035  0.601147459946656  0.5635602309602226  1.0000
  O   O10       1.0  0.9474176857242862  0.4053583423393228  0.7592658165342672  1.0000
  O   O11       1.0  0.9474470966330713  0.4193106673831015  0.3816294313515305  1.0000
  O   O12       1.0  0.9473840101662572  0.22351999005101653  0.5773350858243578  1.0000
