data_image0
_chemical_formula_structural       NC9NC3OH6C7OC3NC3H11C7OC3OC4H12Zn2C4O8
_chemical_formula_sum              "N3 C43 O12 H29 Zn2"
_cell_length_a       15.78231758774541
_cell_length_b       10.298746005989749
_cell_length_c       10.299374482448636
_cell_angle_alpha    85.55101224981432
_cell_angle_beta     90.0656979821288
_cell_angle_gamma    89.64076015714048

_space_group_name_H-M_alt    "P 1"
_space_group_IT_number       1

loop_
  _space_group_symop_operation_xyz
  'x, y, z'

loop_
  _atom_site_type_symbol
  _atom_site_label
  _atom_site_symmetry_multiplicity
  _atom_site_fract_x
  _atom_site_fract_y
  _atom_site_fract_z
  _atom_site_occupancy
  N   N1        1.0  0.7983026831800542  0.4137179718633266  0.5699532495303135  1.0000
  C   C1        1.0  0.7497579439566292  0.3316419327976379  0.5940287549655052  1.0000
  C   C2        1.0  0.6894878504812406  0.2297656178529197  0.6239126596670603  1.0000
  C   C3        1.0  0.7091306506436148  0.1017925672333182  0.6613722473328134  1.0000
  C   C4        1.0  0.6323904658669212  0.039771800330303364  0.6796011835323132  1.0000
  C   C5        1.0  0.5706244494911806  0.13448649478875296  0.6519180830808826  1.0000
  C   C6        1.0  0.4775307434142195  0.11697517450255934  0.6571280345531985  1.0000
  C   C7        1.0  0.4238022674302945  0.22434618987906663  0.6255807329861653  1.0000
  C   C8        1.0  0.33559354607188835  0.2099873254401632  0.6298599292260589  1.0000
  C   C9        1.0  0.28116905811393933  0.32048235808238146  0.5973864958497794  1.0000
  N   N2        1.0  0.23742466261549583  0.4093061088215706  0.5712807574735324  1.0000
  C   C10       1.0  0.3004319883144966  0.08809763846919605  0.6657354127246391  1.0000
  C   C11       1.0  0.35322956530937577  0.9809486086583332  0.6972218483739316  1.0000
  C   C12       1.0  0.44125256326180134  0.9949130123478696  0.6930589365813993  1.0000
  O   O1        1.0  0.6071002379028162  0.24673574154905387  0.6190125482950892  1.0000
  H   H1        1.0  0.771584394758434  0.05863547515568368  0.6739541127531006  1.0000
  H   H2        1.0  0.6236425491877344  0.937793415121988  0.7094669713168105  1.0000
  H   H3        1.0  0.4504224326442564  0.31919798023191404  0.5976585238267527  1.0000
  H   H4        1.0  0.2323138044540663  0.07593642695132763  0.6693575469136561  1.0000
  H   H5        1.0  0.32587918478315775  0.8867452742738704  0.7249535904302082  1.0000
  H   H6        1.0  0.48032585244585735  0.9100434330682146  0.7180066611724638  1.0000
  C   C13       1.0  0.01782722925431801  0.030110336897114953  0.5705997149627715  1.0000
  C   C14       1.0  0.057489422506795895  0.03824801546468537  0.44821197049145267  1.0000
  C   C15       1.0  0.07665369208708905  0.9252485673366893  0.38563509456050116  1.0000
  C   C16       1.0  0.05749006790918587  0.8030114205455928  0.44816283398769596  1.0000
  C   C17       1.0  0.01790818557813756  0.7929037046808749  0.5706455155643313  1.0000
  C   C18       1.0  0.9981240017377222  0.9070186450655363  0.6309316723448806  1.0000
  C   C19       1.0  0.11925667754457292  0.9336430097672451  0.2569448034230133  1.0000
  O   O2        1.0  0.17099645305658306  0.8451513769509308  0.2318882649954379  1.0000
  C   C20       1.0  0.103165946644586  0.04236683607334446  0.15668769851700004  1.0000
  C   C21       1.0  0.022936562943673522  0.10256794951731396  0.1443373785030786  1.0000
  C   C22       1.0  0.008108697769930728  0.20441140777959133  0.04838310833200654  1.0000
  N   N3        1.0  0.9265227617871619  0.26546812424664745  0.036932088476602676  1.0000
  C   C23       1.0  0.0735629005268219  0.2456611178783541  0.9634444728307909  1.0000
  C   C24       1.0  0.15301923949648777  0.18530346068587633  0.9739363334807405  1.0000
  C   C25       1.0  0.1677812602913924  0.08388521241082669  0.06958618833852714  1.0000
  H   H7        1.0  0.9440600556594692  0.22201729216985489  0.8027186731995071  1.0000
  H   H8        1.0  0.0743488760685671  0.13260672362914327  0.40203987545900666  1.0000
  H   H9        1.0  0.0727813332448013  0.7156778680073264  0.40050987570424446  1.0000
  H   H10       1.0  0.9675557880447317  0.8999938450565971  0.7252723675796862  1.0000
  H   H11       1.0  0.943436972948685  0.5664838761538432  0.8022738063723964  1.0000
  H   H12       1.0  0.9716112821252338  0.06966388554605452  0.2081465830980802  1.0000
  H   H13       1.0  0.8772789433803154  0.23549344064709787  0.09973609623620083  1.0000
  H   H14       1.0  0.9147828396124233  0.3412188438792778  0.9656562654096983  1.0000
  H   H15       1.0  0.06290008015189597  0.32413800231483303  0.8889230743053753  1.0000
  H   H16       1.0  0.2033068330186114  0.21718291335253026  0.9077916185493953  1.0000
  H   H17       1.0  0.22992306494710557  0.038617348399548  0.07630177782881908  1.0000
  C   C26       1.0  0.017946215815080935  0.4115937195948778  0.18924032875732455  1.0000
  C   C27       1.0  0.10645254009289662  0.42537008029865175  0.18713739062150703  1.0000
  C   C28       1.0  0.15098580428399644  0.4337910828709841  0.0687887039285564  1.0000
  C   C29       1.0  0.10625000129794193  0.4253082389391283  0.951897923769724  1.0000
  C   C30       1.0  0.017789199671146116  0.41142028904861294  0.952004871045045  1.0000
  C   C31       1.0  0.9741252211236715  0.40498468788799213  0.07118377954028365  1.0000
  C   C32       1.0  0.24454166836731295  0.4469783382051362  0.06653335950156736  1.0000
  O   O3        1.0  0.2861059729182569  0.39301412848020445  0.9808086805596132  1.0000
  C   C33       1.0  0.29094133972137604  0.5213999492132659  0.16144592499118327  1.0000
  C   C34       1.0  0.3736047079010216  0.48384845187135506  0.19985790923551083  1.0000
  C   C35       1.0  0.41887072039038786  0.5536637292476232  0.28820228754179555  1.0000
  O   O4        1.0  0.5008453679045903  0.5109443529537208  0.3237408359960039  1.0000
  C   C36       1.0  0.5539399101801892  0.5722868941057553  0.41229736671437833  1.0000
  C   C37       1.0  0.381004941358126  0.663440123182329  0.33800900804885936  1.0000
  C   C38       1.0  0.29933099839630706  0.7023150066177979  0.299089540273066  1.0000
  C   C39       1.0  0.2545540057483613  0.6322617869526035  0.21098765892940996  1.0000
  H   H18       1.0  0.851068525904287  0.38360688143017296  0.40068507639110473  1.0000
  H   H19       1.0  0.1409625984320375  0.42811560777413904  0.2778331814918673  1.0000
  H   H20       1.0  0.14056489289441432  0.4308195576217462  0.8606083971674514  1.0000
  H   H21       1.0  0.9058933113938487  0.3943632688029024  0.07200127570882131  1.0000
  H   H22       1.0  0.9838862934280747  0.4050007697235056  0.6246731973631068  1.0000
  H   H23       1.0  0.40298052111235805  0.3992340276537114  0.16206316724025527  1.0000
  H   H24       1.0  0.6149256420254805  0.5183124179366447  0.4224372280572253  1.0000
  H   H25       1.0  0.5233431336012055  0.5707932081883671  0.5094394682606551  1.0000
  H   H26       1.0  0.5669773715855031  0.674170353199697  0.374681333360394  1.0000
  H   H27       1.0  0.4142145563469277  0.7195490087815972  0.40630372551981586  1.0000
  H   H28       1.0  0.2707510087627778  0.7874105266595004  0.33691564832631093  1.0000
  H   H29       1.0  0.1919006824667373  0.6656208322982038  0.18057604021812512  1.0000
  Zn  Zn1       1.0  0.925023795332445  0.412441332512526  0.5703438331680024  1.0000
  Zn  Zn2       1.0  0.11070351865996719  0.4105721453779445  0.5709007898907166  1.0000
  C   C40       1.0  0.017816447549172  0.4062789771295996  0.8078257594607505  1.0000
  C   C41       1.0  0.017912894207757102  0.41673611908072616  0.33341899724926893  1.0000
  C   C42       1.0  0.017889596777413752  0.648720724693391  0.5654615033498116  1.0000
  C   C43       1.0  0.017839681440115607  0.1742928117024436  0.5757833223174937  1.0000
  O   O5        1.0  0.08836619789527256  0.41774694232038323  0.38201803731690864  1.0000
  O   O6        1.0  0.0882897575038546  0.4038485043832032  0.7596490627405503  1.0000
  O   O7        1.0  0.08834787625779716  0.5996232908906447  0.5639382083954525  1.0000
  O   O8        1.0  0.08830801580244807  0.2219721657639282  0.5777287940944291  1.0000
  O   O9        1.0  0.9474192348265891  0.6010413127658196  0.5635158287673969  1.0000
  O   O10       1.0  0.9473611162486711  0.40526808671214765  0.7592266139583157  1.0000
  O   O11       1.0  0.9474375570130433  0.4191664797439132  0.38159402707666334  1.0000
  O   O12       1.0  0.9473793748957259  0.2233916938757492  0.5773048812248682  1.0000
