data_image0
_chemical_formula_structural       NC9NC3OH6C7OC4NC3H9C7OC6H10Zn2C4O8
_chemical_formula_sum              "N3 C43 O11 H25 Zn2"
_cell_length_a       15.78231758774541
_cell_length_b       10.299371701877257
_cell_length_c       10.299382801718286
_cell_angle_alpha    85.59153606020502
_cell_angle_beta     90.06446718373022
_cell_angle_gamma    89.64160960478583

_space_group_name_H-M_alt    "P 1"
_space_group_IT_number       1

loop_
  _space_group_symop_operation_xyz
  'x, y, z'

loop_
  _atom_site_type_symbol
  _atom_site_label
  _atom_site_symmetry_multiplicity
  _atom_site_fract_x
  _atom_site_fract_y
  _atom_site_fract_z
  _atom_site_occupancy
  N   N1        1.0  0.7983393295490205  0.4129977515037968  0.5704080249809482  1.0000
  C   C1        1.0  0.7497933919728118  0.3309386759138089  0.5944590921613389  1.0000
  C   C2        1.0  0.6895218110448086  0.22908341691349166  0.6243126630367308  1.0000
  C   C3        1.0  0.7091627439789774  0.10113678247470492  0.661734149180389  1.0000
  C   C4        1.0  0.6324216530950242  0.03912884931713245  0.6799446174012251  1.0000
  C   C5        1.0  0.5706570180310319  0.1338240101818824  0.6522897150583247  1.0000
  C   C6        1.0  0.47756305512384883  0.11631634004649305  0.6574944500669291  1.0000
  C   C7        1.0  0.4238361476318261  0.2236651420701279  0.6259791201013327  1.0000
  C   C8        1.0  0.3356272155658997  0.2093092736862645  0.6302540387269222  1.0000
  C   C9        1.0  0.2812043418659522  0.31978144318996016  0.5978135074577868  1.0000
  N   N2        1.0  0.2374612440429736  0.40858681437270694  0.5717342181737306  1.0000
  C   C10       1.0  0.3004638762425703  0.08744483004129733  0.666093225356666  1.0000
  C   C11       1.0  0.3532598879196658  0.9803179694947384  0.6975477553594098  1.0000
  C   C12       1.0  0.4412830908111909  0.9942794588994529  0.693389003710728  1.0000
  O   O1        1.0  0.6071344450131851  0.24605006600661894  0.619417601951042  1.0000
  H   H1        1.0  0.7716158591991584  0.05798857744310748  0.6743031670986117  1.0000
  H   H2        1.0  0.6236722482304846  0.9371715208901026  0.7097800425696092  1.0000
  H   H3        1.0  0.45045769929442603  0.3184972866487543  0.5980851564995096  1.0000
  H   H4        1.0  0.23234551395728473  0.07528615513149095  0.6697117366995411  1.0000
  H   H5        1.0  0.3259081304166139  0.8861341467543731  0.7252514449452416  1.0000
  H   H6        1.0  0.480355140023259  0.9094274427164499  0.7183114565073281  1.0000
  C   C13       1.0  0.01786003831112204  0.029422237500223547  0.5709439992704717  1.0000
  C   C14       1.0  0.022007303197538963  0.03869631895869108  0.4342942030260877  1.0000
  C   C15       1.0  0.02313697197603437  0.9262146489317229  0.365306530782604  1.0000
  C   C16       1.0  0.022017714024731516  0.8034279570429752  0.43461162436680234  1.0000
  C   C17       1.0  0.017948618676438377  0.7921522545087578  0.571209473849174  1.0000
  C   C18       1.0  0.015670397996003116  0.9057528521496406  0.6385688037084596  1.0000
  C   C19       1.0  0.02840605388750239  0.9358547537694818  0.2210751716290269  1.0000
  O   O2        1.0  0.06919923754067003  0.849688058316384  0.16625353539093424  1.0000
  C   C20       1.0  0.9873835459415558  0.04316502228494046  0.13904063816006973  1.0000
  C   C21       1.0  0.023699291147898816  0.08742244594666104  0.019182300799237106  1.0000
  C   C22       1.0  0.984910779358792  0.1877007886881632  0.9402758590819662  1.0000
  C   C23       1.0  0.022870802849454197  0.2331253445990893  0.8182363795520362  1.0000
  N   N3        1.0  0.05338896885342792  0.2696370783635622  0.7201343468991861  1.0000
  C   C24       1.0  0.9091741530243465  0.24364737567853956  0.9802182148336476  1.0000
  C   C25       1.0  0.8721435232133067  0.19918618594992998  0.09833487610982417  1.0000
  C   C26       1.0  0.9106887559683541  0.09920775925350522  0.17722918571197455  1.0000
  H   H7        1.0  0.011336651735406322  0.2192228756836445  0.8289074502924336  1.0000
  H   H8        1.0  0.025312843196741097  0.13357711480753864  0.3814185569086954  1.0000
  H   H9        1.0  0.023516562147569253  0.7165656212868625  0.38160488798142667  1.0000
  H   H10       1.0  0.012473623337482476  0.897799316728941  0.7439160580218893  1.0000
  H   H11       1.0  0.017098611044861434  0.4603530747955623  0.6237311885478167  1.0000
  H   H12       1.0  0.08246690505305732  0.04473517349479139  0.9877834866064057  1.0000
  H   H13       1.0  0.8786424223419395  0.32115920689816724  0.9198876516283163  1.0000
  H   H14       1.0  0.8132314861825009  0.2418908822158572  0.12858026965678282  1.0000
  H   H15       1.0  0.8800570710719109  0.06482215645182565  0.2672913127594887  1.0000
  C   C27       1.0  0.017988842265483695  0.4107131827730066  0.18970718053520974  1.0000
  C   C28       1.0  0.10700523826402053  0.410682492589991  0.18867266276975325  1.0000
  C   C29       1.0  0.15190241128691828  0.4091789332828317  0.07109224784626944  1.0000
  C   C30       1.0  0.10679876518757014  0.41071260340828597  0.9534264802652479  1.0000
  C   C31       1.0  0.017819778985846968  0.41086133696347926  0.9524462550328208  1.0000
  C   C32       1.0  0.973930918339117  0.4105160415613436  0.07115386933866508  1.0000
  C   C33       1.0  0.24589231544021573  0.4105304837556263  0.06974841172372526  1.0000
  O   O3        1.0  0.28323264345876464  0.4708644608502963  0.9753554381829486  1.0000
  C   C34       1.0  0.2975216939686347  0.3434284798590084  0.17538734768685638  1.0000
  C   C35       1.0  0.3771687369068668  0.3930883773947469  0.20674685291397066  1.0000
  C   C36       1.0  0.42673202205592253  0.32965645319828885  0.3051290632993764  1.0000
  C   C37       1.0  0.3976858098319229  0.21564430341048513  0.3723655325877646  1.0000
  C   C38       1.0  0.3191621699102356  0.1645261541934846  0.34098589803276735  1.0000
  C   C39       1.0  0.2693574649651249  0.22758178993484224  0.24270488755630848  1.0000
  H   H16       1.0  0.8500018114496113  0.41278279756830294  0.39882471414736  1.0000
  H   H17       1.0  0.14152432642516244  0.41328623603998516  0.2793767837485859  1.0000
  H   H18       1.0  0.1413262287656769  0.41053712984723534  0.8625793331668881  1.0000
  H   H19       1.0  0.9053059840720441  0.4105405000900213  0.07114716956822176  1.0000
  H   H20       1.0  0.9836381053212957  0.41202345358785575  0.6245282696118091  1.0000
  H   H21       1.0  0.4007030256781621  0.48152528604189726  0.15591328542523608  1.0000
  H   H22       1.0  0.48772860807012064  0.3689276154154866  0.32919983934013475  1.0000
  H   H23       1.0  0.4361713412674515  0.16663031256947836  0.4484082472075217  1.0000
  H   H24       1.0  0.29700702522447275  0.07561948216783065  0.3924522341113992  1.0000
  H   H25       1.0  0.20937792135417466  0.18501823292897845  0.2184498205365475  1.0000
  Zn  Zn1       1.0  0.9250604228079496  0.4117213827979451  0.5707982279607675  1.0000
  Zn  Zn2       1.0  0.110740118707783  0.4098525856397026  0.5713546278416377  1.0000
  C   C40       1.0  0.017849270057108235  0.40565965159557926  0.8082704650608616  1.0000
  C   C41       1.0  0.017953299237179587  0.41591593508390723  0.33388252485442527  1.0000
  C   C42       1.0  0.01792865849275338  0.6479791000538286  0.5659841035311421  1.0000
  C   C43       1.0  0.017873847245485575  0.17359492696973655  0.5761689548899445  1.0000
  O   O4        1.0  0.08840584693033149  0.41694716174725643  0.3824802363490294  1.0000
  O   O5        1.0  0.08832331518529268  0.4032090713322203  0.7600946740139485  1.0000
  O   O6        1.0  0.08838647215696938  0.5988851003325686  0.5644467204860508  1.0000
  O   O7        1.0  0.08834262662141046  0.2212711426559375  0.5781280923154668  1.0000
  O   O8        1.0  0.9474578515309564  0.6003028264208514  0.5640247632902353  1.0000
  O   O9        1.0  0.9473946947519625  0.4046283577155656  0.7596726481156313  1.0000
  O   O10       1.0  0.9474772268941213  0.41836640257066926  0.38205664903180847  1.0000
  O   O11       1.0  0.947414006559079  0.22269037420946214  0.5777046023630041  1.0000
