data_image0
_chemical_formula_structural       NC9NC3OH6C6SCOC6H10C7OC6OCH12Zn2C4O8
_chemical_formula_sum              "N2 C43 O12 H28 S1 Zn2"
_cell_length_a       15.78231758774541
_cell_length_b       10.302038109246572
_cell_length_c       10.299362532796529
_cell_angle_alpha    85.5856087193975
_cell_angle_beta     90.0991944518132
_cell_angle_gamma    89.64990665055792

_space_group_name_H-M_alt    "P 1"
_space_group_IT_number       1

loop_
  _space_group_symop_operation_xyz
  'x, y, z'

loop_
  _atom_site_type_symbol
  _atom_site_label
  _atom_site_symmetry_multiplicity
  _atom_site_fract_x
  _atom_site_fract_y
  _atom_site_fract_z
  _atom_site_occupancy
  N   N1        1.0  0.7979076420545589  0.4124838325709814  0.5700958818366781  1.0000
  C   C1        1.0  0.7493634777534967  0.3304475226519925  0.5941654550324909  1.0000
  C   C2        1.0  0.6890940980294009  0.22862052142512868  0.6240419963690513  1.0000
  C   C3        1.0  0.7087377646581843  0.10070937377361289  0.6614923376267146  1.0000
  C   C4        1.0  0.6319980280824038  0.038718647849097954  0.6797167896836056  1.0000
  C   C5        1.0  0.570231386080025  0.13338754938382968  0.6520405309871493  1.0000
  C   C6        1.0  0.4771378304789546  0.11588474520996672  0.6572492138661279  1.0000
  C   C7        1.0  0.42340858267195697  0.22320375918638713  0.625709674863377  1.0000
  C   C8        1.0  0.33519998741623924  0.20885188163366308  0.629987830601753  1.0000
  C   C9        1.0  0.28077470205074007  0.31929339540181445  0.5975223859742582  1.0000
  N   N2        1.0  0.23702966505113912  0.408074123173795  0.5714230695726612  1.0000
  C   C10       1.0  0.3000393295040586  0.08702126144622402  0.6658544994000624  1.0000
  C   C11       1.0  0.352837678378942  0.9799241278838196  0.6973331883603007  1.0000
  C   C12       1.0  0.44086055321049034  0.9938817359392887  0.6931712885357324  1.0000
  O   O1        1.0  0.6067063960763854  0.245582472793193  0.6191431084546397  1.0000
  H   H1        1.0  0.7711917816891887  0.05757313005735054  0.6740710868531348  1.0000
  H   H2        1.0  0.6232508076407177  0.9367895997425877  0.7095752086403739  1.0000
  H   H3        1.0  0.4500280458558801  0.31800958255103273  0.5977943252919324  1.0000
  H   H4        1.0  0.23192125164095392  0.07486596630827513  0.6694757524229626  1.0000
  H   H5        1.0  0.3254879952439914  0.8857664464627911  0.7250581177074302  1.0000
  H   H6        1.0  0.4799344569070694  0.9090532666112695  0.718112876874712  1.0000
  C   C13       1.0  0.017392438523642806  0.029001301238463117  0.5707190784033884  1.0000
  C   C14       1.0  0.9449436966485064  0.03447362712605617  0.49098133272033695  1.0000
  C   C15       1.0  0.9092946868222556  0.9202337665231684  0.45082443119064175  1.0000
  C   C16       1.0  0.9452162186277507  0.7993382752749583  0.49092815075407903  1.0000
  C   C17       1.0  0.017552981996703076  0.7915466151123236  0.5708111370939084  1.0000
  C   C18       1.0  0.05331163700744801  0.9070344596554233  0.6102074871443519  1.0000
  S   S1        1.0  0.8173333754805983  0.9286602221017352  0.3479384273991539  1.0000
  C   C19       1.0  0.8796022810369386  0.9364837669869231  0.20170610329757044  1.0000
  O   O2        1.0  0.9000245859376095  0.8309965056202823  0.15541823905337493  1.0000
  C   C20       1.0  0.9075352600682381  0.06234902987623814  0.13629362155245306  1.0000
  C   C21       1.0  0.9674240091558  0.06405525355413189  0.03496909846131424  1.0000
  C   C22       1.0  0.9946450805171155  0.1820988384551483  0.9733288864427867  1.0000
  C   C23       1.0  0.9624355363544718  0.2996711984344156  0.011732425308761174  1.0000
  C   C24       1.0  0.9028013725433872  0.2994345797484883  0.11170468719416604  1.0000
  C   C25       1.0  0.8752979339111832  0.1816975678404278  0.1736642152158574  1.0000
  H   H7        1.0  0.15385173094127547  0.22599167300650502  0.7211838462349398  1.0000
  H   H8        1.0  0.9161110464682038  0.12727549576153008  0.45961870274257244  1.0000
  H   H9        1.0  0.9166564554435659  0.7118637178807719  0.4590778193176013  1.0000
  H   H10       1.0  0.10916487718699242  0.9018953629880206  0.6716766462284465  1.0000
  H   H11       1.0  0.045203115663626114  0.4612681190936579  0.6008609856393747  1.0000
  H   H12       1.0  0.99362928813051  0.9742178673702072  0.0037510344526923145  1.0000
  H   H13       1.0  0.04085174223136856  0.18236415986882193  0.8957717048754499  1.0000
  H   H14       1.0  0.9836062691717858  0.3909481564034434  0.9639225980055102  1.0000
  H   H15       1.0  0.8777062634179434  0.39064315837873576  0.14116546995219936  1.0000
  H   H16       1.0  0.8285947300238456  0.18482458947755376  0.2500875693249811  1.0000
  C   C26       1.0  0.01740654395751018  0.4101541119433194  0.18939800019035236  1.0000
  C   C27       1.0  0.936963054556347  0.3522953954823853  0.1924354869168028  1.0000
  C   C28       1.0  0.8960246312502596  0.3244397628322786  0.07679505254300012  1.0000
  C   C29       1.0  0.9372017014706051  0.3524565175476868  0.9571819279577629  1.0000
  C   C30       1.0  0.017538860082730867  0.41039377970295177  0.9521322041084095  1.0000
  C   C31       1.0  0.05710819865451566  0.43916454293325424  0.06877745508015898  1.0000
  C   C32       1.0  0.8115089303730677  0.2620059938371133  0.082334832769696  1.0000
  O   O3        1.0  0.7941809461495049  0.18299241630290508  0.178169517845568  1.0000
  C   C33       1.0  0.7466543077205962  0.2892021174459183  0.9792271978377509  1.0000
  C   C34       1.0  0.7401644186494575  0.412610233863816  0.9113689929766169  1.0000
  C   C35       1.0  0.6781501820929321  0.43740678779477205  0.8154888806838416  1.0000
  C   C36       1.0  0.6211329528698359  0.34033850015652023  0.7862560240710001  1.0000
  C   C37       1.0  0.6267318020832613  0.2171328396715686  0.8550297751755234  1.0000
  C   C38       1.0  0.688738418733215  0.19220919367244327  0.950982254180571  1.0000
  O   O4        1.0  0.5601433291001229  0.3701035504927712  0.6890906445453515  1.0000
  C   C39       1.0  0.49834548153708563  0.2809844221832518  0.6495204790221507  1.0000
  H   H17       1.0  0.16934789365402625  0.5188407291707335  0.3909747578296705  1.0000
  H   H18       1.0  0.9055861166409381  0.32987500540219794  0.2848720067013062  1.0000
  H   H19       1.0  0.9069069188977279  0.32768668768807796  0.868033284033972  1.0000
  H   H20       1.0  0.11908267797572725  0.4838547393881476  0.06561474450494731  1.0000
  H   H21       1.0  0.048499939041169116  0.432135594775658  0.6227592291356725  1.0000
  H   H22       1.0  0.7824143109879432  0.4904178965795676  0.9333302844052436  1.0000
  H   H23       1.0  0.6741331387683914  0.532883600388566  0.7639245619787807  1.0000
  H   H24       1.0  0.5835087610307204  0.14002057320319738  0.8351624006224934  1.0000
  H   H25       1.0  0.6919321918966783  0.096558823728915  0.0024308707073452673  1.0000
  H   H26       1.0  0.4585563345155528  0.3300673733498225  0.5713226702488083  1.0000
  H   H27       1.0  0.45696363426665637  0.24919470515928777  0.7329412159571382  1.0000
  H   H28       1.0  0.5299132000671034  0.19536794377072586  0.6109498186076712  1.0000
  Zn  Zn1       1.0  0.9246287692582583  0.41120781990208766  0.5704863725606197  1.0000
  Zn  Zn2       1.0  0.1103085089656628  0.40933954224509295  0.5710431938382108  1.0000
  C   C40       1.0  0.017510858907961557  0.40517606701126474  0.8079584640450637  1.0000
  C   C41       1.0  0.01742844729989712  0.41537291300184864  0.3335712360977974  1.0000
  C   C42       1.0  0.01751735319240799  0.6474077275144745  0.5656185536251201  1.0000
  C   C43       1.0  0.01742188933958211  0.17313969322875722  0.575911215377769  1.0000
  O   O5        1.0  0.0879002906102131  0.4164097242917757  0.3821684011964257  1.0000
  O   O6        1.0  0.08796564142781782  0.4027202966031793  0.7597835394496961  1.0000
  O   O7        1.0  0.0879699359837971  0.5983254358790027  0.5640923445048427  1.0000
  O   O8        1.0  0.08789593267938112  0.22080459491086857  0.5778594985781917  1.0000
  O   O9        1.0  0.9470412821811569  0.5997427678752747  0.5636700676237925  1.0000
  O   O10       1.0  0.9470369879376634  0.40413918850829544  0.7593611935117712  1.0000
  O   O11       1.0  0.9469716368960505  0.4178285704605389  0.38174449385997833  1.0000
  O   O12       1.0  0.9469672789766878  0.22222343182367776  0.5774356886079854  1.0000
