data_image0
_chemical_formula_structural       NC9NC3OH6C6NCOC6H11C7OC6OCH12Zn2C4O8
_chemical_formula_sum              "N3 C43 O12 H29 Zn2"
_cell_length_a       15.78231758774541
_cell_length_b       10.29965916528486
_cell_length_c       10.299362532796529
_cell_angle_alpha    85.59689086151258
_cell_angle_beta     90.0991944518132
_cell_angle_gamma    89.64856781770791

_space_group_name_H-M_alt    "P 1"
_space_group_IT_number       1

loop_
  _space_group_symop_operation_xyz
  'x, y, z'

loop_
  _atom_site_type_symbol
  _atom_site_label
  _atom_site_symmetry_multiplicity
  _atom_site_fract_x
  _atom_site_fract_y
  _atom_site_fract_z
  _atom_site_occupancy
  N   N1        1.0  0.7978864980082181  0.4127888334865748  0.5703748388074532  1.0000
  C   C1        1.0  0.749343561742124  0.3307348092765898  0.5944282103307363  1.0000
  C   C2        1.0  0.6890757063079231  0.22888582030877602  0.6242846414535368  1.0000
  C   C3        1.0  0.7087212876908237  0.10094705250597169  0.661709721037081  1.0000
  C   C4        1.0  0.6319824790794922  0.03894294077998506  0.6799219303024289  1.0000
  C   C5        1.0  0.5702144199397309  0.13363228439056907  0.6522643681385554  1.0000
  C   C6        1.0  0.47712112634527204  0.11612570079553675  0.657469594320105  1.0000
  C   C7        1.0  0.4233902720362014  0.22346788841597953  0.6259512501702478  1.0000
  C   C8        1.0  0.33518189161959  0.20911291182899183  0.6302265715000488  1.0000
  C   C9        1.0  0.2807549530100457  0.31957827348980006  0.5977829384001747  1.0000
  N   N2        1.0  0.23700858701553604  0.40837817189059256  0.5717011556526357  1.0000
  C   C10       1.0  0.30002305743963187  0.08725598447268657  0.6660691794914508  1.0000
  C   C11       1.0  0.3528230094951694  0.9801357251774128  0.6975267174188291  1.0000
  C   C12       1.0  0.4408456753895926  0.9940963471316172  0.6933675741370067  1.0000
  O   O1        1.0  0.6066877504445425  0.245851434310407  0.6193891034214125  1.0000
  H   H1        1.0  0.7711759504458461  0.05780149428038506  0.6742799511175821  1.0000
  H   H2        1.0  0.6232367844552823  0.9369918828973047  0.7097602188917989  1.0000
  H   H3        1.0  0.45000831603310376  0.3182941834223265  0.598054624172615  1.0000
  H   H4        1.0  0.2319051615340955  0.07509806461361812  0.6696880319174505  1.0000
  H   H5        1.0  0.32547473584493897  0.8859577120694785  0.7252330511962406  1.0000
  H   H6        1.0  0.4799208489181123  0.9092495605951338  0.7182924093689462  1.0000
  C   C13       1.0  0.017377034983654394  0.029223495880119632  0.5709222999053256  1.0000
  C   C14       1.0  0.017929322151716942  0.038456562285831275  0.43411069360643584  1.0000
  C   C15       1.0  0.0194570076007734  0.9262593587818035  0.36528108022364014  1.0000
  C   C16       1.0  0.018089018637710952  0.8032647571553241  0.4344075543573158  1.0000
  C   C17       1.0  0.017526120949217683  0.7919334221505911  0.5711649060828805  1.0000
  C   C18       1.0  0.01747146393781196  0.9055173864332817  0.6386512661072836  1.0000
  N   N3        1.0  0.018719938461503993  0.9392962215450192  0.22521550599078144  1.0000
  C   C19       1.0  0.05842399769175577  0.8477438957633876  0.1456108999343293  1.0000
  O   O2        1.0  0.11688407761825603  0.7743525865131247  0.19276457625479315  1.0000
  C   C20       1.0  0.033771651037583394  0.8417521208327788  0.007172969375462301  1.0000
  C   C21       1.0  0.955414010019229  0.8923821359016304  0.9605914599549679  1.0000
  C   C22       1.0  0.932686551432733  0.8855567109599182  0.8300027951047708  1.0000
  C   C23       1.0  0.9875272621142906  0.8278924918325423  0.7447135273351715  1.0000
  C   C24       1.0  0.06513877609673435  0.7764820246269989  0.7899165915992876  1.0000
  C   C25       1.0  0.08818968561242824  0.782947835947572  0.9204017609028754  1.0000
  H   H7        1.0  0.015526509691218715  0.21907894621794144  0.8289904024897603  1.0000
  H   H8        1.0  0.017822552270279512  0.13305030722717692  0.3802884712161012  1.0000
  H   H9        1.0  0.01597567892414431  0.7164790686883719  0.381596911417182  1.0000
  H   H10       1.0  0.01705704270164876  0.8975342323640322  0.7441176100774087  1.0000
  H   H11       1.0  0.01618292387824627  0.4601489628822617  0.6236212668481416  1.0000
  H   H12       1.0  0.9945358082045092  0.02565788156683224  0.17920297560561504  1.0000
  H   H13       1.0  0.9110240158190892  0.9355447298441073  0.024938416956645337  1.0000
  H   H14       1.0  0.8722948767175056  0.9245858758105493  0.7950353638518188  1.0000
  H   H15       1.0  0.9697656019786418  0.8226824216737773  0.6437044622641661  1.0000
  H   H16       1.0  0.10752368324635886  0.7315432516094171  0.7237998955956186  1.0000
  H   H17       1.0  0.1487931590504934  0.7427297389958485  0.9531511693793342  1.0000
  C   C26       1.0  0.017385434785706977  0.41045860979692517  0.18967649705546474  1.0000
  C   C27       1.0  0.9369428114952589  0.3525873997689217  0.19270255703712458  1.0000
  C   C28       1.0  0.8960048051714931  0.3247257521873401  0.07705662134520153  1.0000
  C   C29       1.0  0.9371814559976153  0.3527485566256854  0.9574490298987124  1.0000
  C   C30       1.0  0.017517747323243293  0.4106983293085733  0.9524107483064479  1.0000
  C   C31       1.0  0.0570866552137439  0.4394753050766227  0.06906168132904456  1.0000
  C   C32       1.0  0.8114900388908426  0.26227850172338285  0.08258407128204048  1.0000
  O   O3        1.0  0.7941632374537346  0.18324786260380588  0.17840315165665444  1.0000
  C   C33       1.0  0.7466350091285092  0.28948049785434393  0.97948180741919  1.0000
  C   C34       1.0  0.7401432727109641  0.4129152620735337  0.911647974910879  1.0000
  C   C35       1.0  0.6781286649647138  0.4377171703819902  0.815772759786773  1.0000
  C   C36       1.0  0.6211128887963886  0.34062792256286945  0.7865207327771779  1.0000
  C   C37       1.0  0.6267135823255752  0.21739565799340577  0.855270151512693  1.0000
  C   C38       1.0  0.6887205720677468  0.19246663017349475  0.9512177082491613  1.0000
  O   O4        1.0  0.5601228194615022  0.37039940013559325  0.6893612316680358  1.0000
  C   C39       1.0  0.49832630595902944  0.2812610281256469  0.6497734656587277  1.0000
  H   H18       1.0  0.16932515750793953  0.5191686959781079  0.39127471964100513  1.0000
  H   H19       1.0  0.9055662091998097  0.330162168401815  0.28513464893087503  1.0000
  H   H20       1.0  0.9068870442144195  0.3279733781591667  0.8682954940840952  1.0000
  H   H21       1.0  0.11906046554918515  0.48417515158946567  0.06590779679597136  1.0000
  H   H22       1.0  0.048478500819588044  0.4324448391419211  0.6230420672100241  1.0000
  H   H23       1.0  0.7823920003148254  0.49073972597866655  0.9336246328799169  1.0000
  H   H24       1.0  0.6741101924088407  0.5332145995057485  0.7642272971718178  1.0000
  H   H25       1.0  0.5834916955979886  0.14026674049418064  0.8353875477557842  1.0000
  H   H26       1.0  0.6919157770605934  0.09679560622335948  0.002647434409307925  1.0000
  H   H27       1.0  0.4585364241947902  0.330354577887898  0.5715853504698769  1.0000
  H   H28       1.0  0.45694493456183444  0.24946444667422862  0.7331879243178459  1.0000
  H   H29       1.0  0.5298953061170173  0.19562606234802415  0.6111858965102046  1.0000
  Zn  Zn1       1.0  0.9246076443130712  0.41151254528530035  0.5707650775266495  1.0000
  Zn  Zn2       1.0  0.1102874119874857  0.40964386420677057  0.5713215298307597  1.0000
  C   C40       1.0  0.01748982425454293  0.40547948994406235  0.8082359777765629  1.0000
  C   C41       1.0  0.01740726000573356  0.4156785377632908  0.33385076364439503  1.0000
  C   C42       1.0  0.017492692474508242  0.6477634560925014  0.565943906637099  1.0000
  C   C43       1.0  0.01740432813324011  0.17339301200827362  0.5761429033359406  1.0000
  O   O5        1.0  0.08787908779559861  0.4167155729342893  0.3824481335069505  1.0000
  O   O6        1.0  0.0879446435358271  0.4030231892557672  0.7600605681814672  1.0000
  O   O7        1.0  0.08794600999873126  0.5986705660037646  0.564408004062583  1.0000
  O   O8        1.0  0.08787765795769387  0.22106820608334465  0.5781006000647018  1.0000
  O   O9        1.0  0.9470173349794704  0.600088204047827  0.5639860070959868  1.0000
  O   O10       1.0  0.9470159688057014  0.404442387545509  0.759638502466069  1.0000
  O   O11       1.0  0.9469504128421491  0.4181347254778016  0.3820245063839973  1.0000
  O   O12       1.0  0.9469489830158523  0.22248734936890546  0.5776770703061611  1.0000
