data_image0
_chemical_formula_structural       NC9NC3OH6C7OC6H10C7OC3FC3H9Zn2C4O8
_chemical_formula_sum              "N2 C42 O11 H25 F1 Zn2"
_cell_length_a       15.78231758774541
_cell_length_b       10.299379429549807
_cell_length_c       10.29938172300155
_cell_angle_alpha    85.55361563187328
_cell_angle_beta     90.06753164669173
_cell_angle_gamma    89.62936124648849

_space_group_name_H-M_alt    "P 1"
_space_group_IT_number       1

loop_
  _space_group_symop_operation_xyz
  'x, y, z'

loop_
  _atom_site_type_symbol
  _atom_site_label
  _atom_site_symmetry_multiplicity
  _atom_site_fract_x
  _atom_site_fract_y
  _atom_site_fract_z
  _atom_site_occupancy
  N   N1        1.0  0.7980916095892879  0.41297486420410845  0.569373936144185  1.0000
  C   C1        1.0  0.7495580182732546  0.3309128213029455  0.5934853809396907  1.0000
  C   C2        1.0  0.689301762067269  0.22905387917372  0.6234138951095745  1.0000
  C   C3        1.0  0.7089619425770654  0.10110261234508888  0.6609295225549787  1.0000
  C   C4        1.0  0.6322301823985563  0.03909243958243458  0.6791856149162869  1.0000
  C   C5        1.0  0.5704513033525705  0.133791031953842  0.6514610370033775  1.0000
  C   C6        1.0  0.4773599771118233  0.11628273407211887  0.6566786534434876  1.0000
  C   C7        1.0  0.4236169165765854  0.2236354141131558  0.625084338414903  1.0000
  C   C8        1.0  0.3354101467614306  0.20927903151413307  0.6293698194651991  1.0000
  C   C9        1.0  0.2809706497520617  0.3197551912672596  0.5968480050681084  1.0000
  N   N2        1.0  0.2372141888885035  0.40856377000191624  0.570703374643373  1.0000
  C   C10       1.0  0.300265146843858  0.08741019001277883  0.6652986711293862  1.0000
  C   C11       1.0  0.3530772783188071  0.980279459784002  0.6968320228711973  1.0000
  C   C12       1.0  0.44109837831609533  0.9942414491848803  0.6926629989717172  1.0000
  O   O1        1.0  0.6069118459958959  0.24602114745839354  0.6185063498372598  1.0000
  H   H1        1.0  0.7714215470126454  0.05795284140014778  0.6735302885836241  1.0000
  H   H2        1.0  0.6234961159504233  0.9371314208339855  0.7090960587436657  1.0000
  H   H3        1.0  0.4502241967664629  0.31847098065980317  0.5971205995439415  1.0000
  H   H4        1.0  0.23214861579924523  0.07525107943478626  0.6689261283090429  1.0000
  H   H5        1.0  0.3257396947359251  0.8860922385008314  0.724605010703832  1.0000
  H   H6        1.0  0.4801831958284282  0.9093863685421966  0.7176478840901159  1.0000
  C   C13       1.0  0.01766615908272051  0.029377328078915133  0.5701927522282468  1.0000
  C   C14       1.0  0.06900825009828826  0.0190029050608147  0.6820927773985692  1.0000
  C   C15       1.0  0.09410932384108617  0.8965392946764357  0.7393806728912549  1.0000
  C   C16       1.0  0.06890516703690741  0.7837817940757991  0.6818161854765159  1.0000
  C   C17       1.0  0.017647727623989473  0.7921512612704679  0.5698957916248812  1.0000
  C   C18       1.0  0.992141473951831  0.9154221391806274  0.5149298418462469  1.0000
  C   C19       1.0  0.1490587662576044  0.885493898752095  0.8567434317599973  1.0000
  O   O2        1.0  0.2028109492577057  0.7941708229178714  0.8692622467601239  1.0000
  C   C20       1.0  0.143025077104866  0.9779478427737266  0.9599089683484847  1.0000
  C   C21       1.0  0.21548816424927542  0.0067038621337802695  0.03169033212579875  1.0000
  C   C22       1.0  0.21022164631304974  0.09254273851338746  0.1301657430856431  1.0000
  C   C23       1.0  0.13259947806912908  0.14962378829159984  0.1586887067715489  1.0000
  C   C24       1.0  0.060006067464599466  0.12056081107923  0.08915102647196449  1.0000
  C   C25       1.0  0.06493234089704436  0.03480498189498915  0.990586919324133  1.0000
  H   H7        1.0  0.921849969821306  0.25635378095579386  0.35787324149938593  1.0000
  H   H8        1.0  0.09031418836259775  0.1063880618806683  0.7239938873128262  1.0000
  H   H9        1.0  0.08873237286684632  0.6892928516718495  0.7253130035030808  1.0000
  H   H10       1.0  0.9525609899641493  0.9226159404882913  0.42866275173874047  1.0000
  H   H11       1.0  0.9985467724115314  0.4679528236560284  0.526270786786716  1.0000
  H   H12       1.0  0.2762772371498865  0.963642437639616  0.010827234601756386  1.0000
  H   H13       1.0  0.2663783660163819  0.11476329196242152  0.18443130453050482  1.0000
  H   H14       1.0  0.1286384172399595  0.21595444419046017  0.23501699321999003  1.0000
  H   H15       1.0  0.9997618421026524  0.16405604298967202  0.11201558010987411  1.0000
  H   H16       1.0  0.007604866202933103  0.011912143623353577  0.9394775292186808  1.0000
  C   C26       1.0  0.01772827371554664  0.4106624275053796  0.1886768645171608  1.0000
  C   C27       1.0  0.04454533675696615  0.2799310081795625  0.19767007419581084  1.0000
  C   C28       1.0  0.05899163125074991  0.2144407063946152  0.08499983841846181  1.0000
  C   C29       1.0  0.044464288915785355  0.2802249734453677  0.9624036647050263  1.0000
  C   C30       1.0  0.017585577958936005  0.41086611833523445  0.9514117093455394  1.0000
  C   C31       1.0  0.004586676123051525  0.4754306965977737  0.06513937102887213  1.0000
  C   C32       1.0  0.0864510152371567  0.07598840766991666  0.09438204772512071  1.0000
  O   O3        1.0  0.06035540224466529  0.003002188487612134  0.010150297746011727  1.0000
  C   C33       1.0  0.14352034781512168  0.020338832760659287  0.19922147500724052  1.0000
  C   C34       1.0  0.1366977175456514  0.8884388597462033  0.2445253347237517  1.0000
  C   C35       1.0  0.19088053499721025  0.8346843657121832  0.34226655139188744  1.0000
  F   F1        1.0  0.18338038868456796  0.7076851569974852  0.38596210594797586  1.0000
  C   C36       1.0  0.2527622901704478  0.911690837207183  0.39489160432159864  1.0000
  C   C37       1.0  0.2608051592127545  0.042373034752747785  0.34952684962552705  1.0000
  C   C38       1.0  0.20679035420657832  0.09653763529699178  0.2518569571844962  1.0000
  H   H17       1.0  0.9658765283689172  0.6567677189513821  0.37906968275039143  1.0000
  H   H18       1.0  0.05332499304979299  0.22844936228429114  0.29252224813440497  1.0000
  H   H19       1.0  0.054967659158812854  0.22956704746764856  0.8754293334322911  1.0000
  H   H20       1.0  0.9839123211474196  0.5762145821365219  0.057402220051224306  1.0000
  H   H21       1.0  0.006577121880431136  0.4607207923874608  0.6197568574110148  1.0000
  H   H22       1.0  0.08896678087106036  0.8273984915908426  0.2050318306974186  1.0000
  H   H23       1.0  0.29473297695486633  0.8700584131756641  0.470451392822689  1.0000
  H   H24       1.0  0.309201002314863  0.10165888480007745  0.38966197091996024  1.0000
  H   H25       1.0  0.21511853715958362  0.1974187467013786  0.2165821479819301  1.0000
  Zn  Zn1       1.0  0.9248128954423808  0.41169845051735754  0.5697650781651569  1.0000
  Zn  Zn2       1.0  0.11049287281326192  0.40982958641350575  0.5703228530263604  1.0000
  C   C39       1.0  0.01761080786467728  0.40565367209886083  0.8072404825545225  1.0000
  C   C40       1.0  0.0176969879470934  0.4158759831766847  0.332847581555866  1.0000
  C   C41       1.0  0.01764781360775003  0.6479694052874099  0.5647767660721124  1.0000
  C   C42       1.0  0.017659918869188163  0.17355869024750303  0.5753113676937742  1.0000
  O   O4        1.0  0.08815107202727157  0.41691080981495854  0.3814442660686146  1.0000
  O   O5        1.0  0.08808353036038641  0.40319944096679383  0.7590667627922689  1.0000
  O   O6        1.0  0.08811246281704377  0.598872469938615  0.5632755928824795  1.0000
  O   O7        1.0  0.08812207622860435  0.22123779074562888  0.5772353384101714  1.0000
  O   O8        1.0  0.9471836286635762  0.6002902468243985  0.562852592584173  1.0000
  O   O9        1.0  0.9471546961782892  0.4046187782323736  0.758643692641291  1.0000
  O   O10       1.0  0.9472222381946745  0.4183301014042258  0.38101963454089316  1.0000
  O   O11       1.0  0.947193242374555  0.22265707307156846  0.5768108042535096  1.0000
