data_image0
_chemical_formula_structural       NC5NC3F3CH3C9H8C6NCOH5Zn2C4O8
_chemical_formula_sum              "N3 C29 F3 H16 O9 Zn2"
_cell_length_a       13.85151926108384
_cell_length_b       9.275152443626249
_cell_length_c       9.27373355559583
_cell_angle_alpha    85.97646638804791
_cell_angle_beta     90.01106478647557
_cell_angle_gamma    90.57354708821606

_space_group_name_H-M_alt    "P 1"
_space_group_IT_number       1

loop_
  _space_group_symop_operation_xyz
  'x, y, z'

loop_
  _atom_site_type_symbol
  _atom_site_label
  _atom_site_symmetry_multiplicity
  _atom_site_fract_x
  _atom_site_fract_y
  _atom_site_fract_z
  _atom_site_occupancy
  N   N1        1.0  0.9193434644968431  0.5616629969476419  0.40487817634476464  1.0000
  C   C1        1.0  0.8469656451194779  0.5532511614096087  0.46735904660516625  1.0000
  C   C2        1.0  0.7569219423097997  0.5427856884121507  0.5450941873585664  1.0000
  C   C3        1.0  0.6694425092440562  0.5511988692379175  0.46955831066342735  1.0000
  C   C4        1.0  0.5818699527137557  0.5427856750474378  0.5450941673508805  1.0000
  C   C5        1.0  0.49194639312739946  0.553251178573801  0.46735914059124156  1.0000
  N   N2        1.0  0.41966527865078124  0.561662960180291  0.4048782818995036  1.0000
  C   C6        1.0  0.5817609112999451  0.524962935825607  0.6963453398782062  1.0000
  C   C7        1.0  0.669228287065489  0.5133725967899527  0.773153979692921  1.0000
  C   C8        1.0  0.6691566938315585  0.49954127300687223  0.9361842473988539  1.0000
  F   F1        1.0  0.7495999027825438  0.42525937871719616  0.9880299435081135  1.0000
  F   F2        1.0  0.5877310879366588  0.42525934917512664  0.9880300428832518  1.0000
  F   F3        1.0  0.6700776340723639  0.635949205805254  0.9874212930662905  1.0000
  C   C9        1.0  0.7568312375062036  0.5249628407558289  0.6963453598181906  1.0000
  H   H1        1.0  0.6695209226771967  0.5651581117128133  0.3524537360012625  1.0000
  H   H2        1.0  0.5136145511914127  0.520402423159467  0.7539995398561523  1.0000
  H   H3        1.0  0.824931304159996  0.520402341796913  0.7539994991053476  1.0000
  C   C10       1.0  0.16666136390399228  0.1380465012183827  0.4063495588363246  1.0000
  C   C11       1.0  0.1318100582842705  0.21947101344697065  0.28391247192486024  1.0000
  C   C12       1.0  0.10593222357532706  0.15269016175713213  0.15918305837246272  1.0000
  C   C13       1.0  0.11449926033043267  0.003297082650812303  0.15442112616693437  1.0000
  C   C14       1.0  0.1474625078411722  0.9201733111111872  0.27582346089421206  1.0000
  C   C15       1.0  0.17235654120189992  0.985268551033764  0.40341931475448933  1.0000
  C   C16       1.0  0.08831726072386382  0.9347604311332565  0.02525597407272917  1.0000
  C   C17       1.0  0.0663959521620936  0.8773435624399136  0.9171004108538553  1.0000
  C   C18       1.0  0.03979877680459644  0.8076663466064429  0.7858726032350751  1.0000
  H   H4        1.0  0.30544111198959256  0.22278898104146252  0.6941741854102861  1.0000
  H   H5        1.0  0.12672447484280114  0.33598363101418793  0.28345913801071276  1.0000
  H   H6        1.0  0.08010161672038518  0.21792752632095325  0.06584358451716366  1.0000
  H   H7        1.0  0.15152640061845565  0.8038201046693573  0.271803044331427  1.0000
  H   H8        1.0  0.26269860607563644  0.6920833136574762  0.600281695354036  1.0000
  H   H9        1.0  0.05745026428562628  0.6910891102426597  0.7993365222586748  1.0000
  H   H10       1.0  0.9612187763037521  0.8200370273522951  0.7661426638546058  1.0000
  H   H11       1.0  0.08054992195345889  0.8590130443598714  0.6925857621350011  1.0000
  C   C19       1.0  0.16942315450021117  0.5571125273929318  0.9816731692900778  1.0000
  C   C20       1.0  0.0806363197915061  0.5488328003080103  0.05565326263510917  1.0000
  C   C21       1.0  0.99280603868189  0.5522435161394079  0.9806919759191595  1.0000
  C   C22       1.0  0.9937683798454466  0.5686230463383303  0.8292875906667083  1.0000
  C   C23       1.0  0.08108910324077746  0.5747501881821375  0.7541109496517393  1.0000
  C   C24       1.0  0.16959473915241663  0.5662024710735276  0.8280957632167709  1.0000
  N   N3        1.0  0.9037547215894224  0.5471839855506233  0.06072395516175466  1.0000
  C   C25       1.0  0.816330439199324  0.4807555976926161  0.014171277335675919  1.0000
  O   O1        1.0  0.8153096043141091  0.4044144367646332  0.9070844803106821  1.0000
  H   H12       1.0  0.39759400245563614  0.6572794490436862  0.0776401916913636  1.0000
  H   H13       1.0  0.9271588729805605  0.5782276696152431  0.7686397551169963  1.0000
  H   H14       1.0  0.3239919313531296  0.6275694307234974  0.5427772893236122  1.0000
  H   H15       1.0  0.9036668143785502  0.5855402268557144  0.16401029395278766  1.0000
  H   H16       1.0  0.7504266317051382  0.49285364524913744  0.07455027138340209  1.0000
  Zn  Zn1       1.0  0.06372550848988112  0.5616592244719052  0.40488652694337635  1.0000
  Zn  Zn2       1.0  0.27528314048945557  0.5616550925987627  0.40488172264550637  1.0000
  C   C26       1.0  0.16952152279736993  0.5587374797034854  0.6681236260996795  1.0000
  C   C27       1.0  0.16948944864872204  0.5645786589852446  0.14164475859316994  1.0000
  C   C28       1.0  0.1712738917780039  0.8250638461235602  0.39823025042344984  1.0000
  C   C29       1.0  0.1677369958432955  0.2982505602405163  0.4115382171005617  1.0000
  O   O2        1.0  0.24979667406733388  0.5670764995411104  0.19533088388214748  1.0000
  O   O3        1.0  0.24978163755650873  0.5562354104410772  0.6144334433606053  1.0000
  O   O4        1.0  0.2511956156934323  0.7712973355962554  0.3964926277984919  1.0000
  O   O5        1.0  0.24838262378758424  0.35201458354625825  0.4132715913519578  1.0000
  O   O6        1.0  0.09062595299752534  0.7712997335273089  0.3964966582309779  1.0000
  O   O7        1.0  0.08921198649116557  0.5562395406996827  0.6144373909559835  1.0000
  O   O8        1.0  0.08922702237702129  0.5670805609222778  0.1953330989396571  1.0000
  O   O9        1.0  0.0878129720458698  0.3520186357699988  0.41327391449582485  1.0000
