data_image0
_chemical_formula_structural       NC5NC3F3CH3C7NH5C9H8Zn2C4O8
_chemical_formula_sum              "N3 C29 F3 H16 Zn2 O8"
_cell_length_a       13.85151926108384
_cell_length_b       9.275154477615127
_cell_length_c       9.275155815604963
_cell_angle_alpha    86.28252252333478
_cell_angle_beta     90.35750761735815
_cell_angle_gamma    89.43371178103573

_space_group_name_H-M_alt    "P 1"
_space_group_IT_number       1

loop_
  _space_group_symop_operation_xyz
  'x, y, z'

loop_
  _atom_site_type_symbol
  _atom_site_label
  _atom_site_symmetry_multiplicity
  _atom_site_fract_x
  _atom_site_fract_y
  _atom_site_fract_z
  _atom_site_occupancy
  N   N1        1.0  0.8921133835550069  0.5642522492969468  0.416448233271944  1.0000
  C   C1        1.0  0.8201011830448425  0.5557120967797924  0.47886686827961444  1.0000
  C   C2        1.0  0.7305123616949788  0.5450869790766205  0.5565245798739902  1.0000
  C   C3        1.0  0.6426142506356144  0.5536561832847036  0.48105092747010736  1.0000
  C   C4        1.0  0.5554603721952178  0.5450869657611839  0.5565245597672335  1.0000
  C   C5        1.0  0.46508193120656643  0.5557121137357646  0.4788669623930351  1.0000
  N   N2        1.0  0.39243519862631815  0.5642522123243174  0.41644833855439023  1.0000
  C   C6        1.0  0.5562026542405871  0.5269523069366115  0.707643900400698  1.0000
  C   C7        1.0  0.6441360928694603  0.5152048629922421  0.7843667738155116  1.0000
  C   C8        1.0  0.6449106479446935  0.5010345856201266  0.947294806668463  1.0000
  F   F1        1.0  0.7265514577465493  0.4266805260392139  0.9985901241704949  1.0000
  F   F2        1.0  0.5646826436969306  0.42668049630129773  0.9985902233268723  1.0000
  F   F3        1.0  0.6442273564889447  0.637264236057056  0.9995427776677968  1.0000
  C   C9        1.0  0.7312729817910176  0.5269522118729801  0.7076439196362051  1.0000
  H   H1        1.0  0.6420314078820564  0.567856844458822  0.36404960922619356  1.0000
  H   H2        1.0  0.48835113155961163  0.5222717577106678  0.7652643973953721  1.0000
  H   H3        1.0  0.7996678854436632  0.5222716764760789  0.7652643560415697  1.0000
  C   C10       1.0  0.14506570047251957  0.14084858879485163  0.41478043230620254  1.0000
  C   C11       1.0  0.11804247961631179  0.2229334348574419  0.2877027185550278  1.0000
  C   C12       1.0  0.0831944390648407  0.15585873474337153  0.1673564996767154  1.0000
  C   C13       1.0  0.07479815660353563  0.00578396907122025  0.17267065685046945  1.0000
  C   C14       1.0  0.10270420604227448  0.922466505666027  0.29685173549127875  1.0000
  C   C15       1.0  0.13949223723671317  0.9876449368771136  0.41812855387305353  1.0000
  C   C16       1.0  0.05488051167665442  0.2415122046967244  0.03874716798414779  1.0000
  N   N3        1.0  0.03212395658913825  0.31036197216386463  0.9353782082874544  1.0000
  H   H4        1.0  0.1652431775637387  0.2205659906386268  0.7685628301833536  1.0000
  H   H5        1.0  0.12196751347655432  0.3398560114328868  0.283426255313443  1.0000
  H   H6        1.0  0.04750083818255679  0.9528609508051628  0.0801770292393651  1.0000
  H   H7        1.0  0.09763423119231313  0.8059978174506172  0.2967248942242847  1.0000
  H   H8        1.0  0.15717025881792956  0.6909158288080071  0.6551728241611388  1.0000
  C   C17       1.0  0.1405340922278917  0.5606022820906058  0.9932088267125  1.0000
  C   C18       1.0  0.06454821334222549  0.6308572393461384  0.06130146377439162  1.0000
  C   C19       1.0  0.9949656363997235  0.7106946130450833  0.9803323483865047  1.0000
  C   C20       1.0  7.727069862450644e-05  0.7219488366763545  0.8297950485901061  1.0000
  C   C21       1.0  0.07412550245535088  0.6509192130339259  0.7599909836346446  1.0000
  C   C22       1.0  0.1440238206091949  0.5678911755653528  0.839700071571073  1.0000
  C   C23       1.0  0.9285210477660332  0.8051547236065613  0.7465266330585207  1.0000
  C   C24       1.0  0.8686055778795423  0.8748282910444022  0.676774056777024  1.0000
  C   C25       1.0  0.7959089241399501  0.9593653846740843  0.5921296227008841  1.0000
  H   H9        1.0  0.36538154289351077  0.4442734844335854  0.10570675824046294  1.0000
  H   H10       1.0  0.06023721589324807  0.6268604703204308  0.17807719891086027  1.0000
  H   H11       1.0  0.9376382354879907  0.7648871404208986  0.035359639085468034  1.0000
  H   H12       1.0  0.0758646338331237  0.657699131438737  0.6428714944719722  1.0000
  H   H13       1.0  0.29408951992099297  0.48439391779208885  0.565787568943986  1.0000
  H   H14       1.0  0.8154996296434885  0.9635080193052841  0.47614701624443706  1.0000
  H   H15       1.0  0.7243447209567535  0.9080221324671918  0.6069528938385333  1.0000
  H   H16       1.0  0.7927328978753768  0.07069780900663192  0.6290745369258532  1.0000
  Zn  Zn1       1.0  0.03649551159925734  0.5642484610216412  0.4164565559282283  1.0000
  Zn  Zn2       1.0  0.24805317897813184  0.5642443414512376  0.4164517210036458  1.0000
  C   C26       1.0  0.14339985342402709  0.5607695286007766  0.6796724257011952  1.0000
  C   C27       1.0  0.14115113596585016  0.5677250942747742  0.15323599983385974  1.0000
  C   C28       1.0  0.14051708896763082  0.8275329268967064  0.4117522136219933  1.0000
  C   C29       1.0  0.1440338399507615  0.30095996436152794  0.42115628190706333  1.0000
  O   O1        1.0  0.22164329511048475  0.5701077215319781  0.2069407213005916  1.0000
  O   O2        1.0  0.22347507415740553  0.558382683404073  0.625963615441274  1.0000
  O   O3        1.0  0.2211461292990824  0.7737975141373576  0.40961615455963707  1.0000
  O   O4        1.0  0.22397216726510302  0.3546929001837583  0.4232880741576337  1.0000
  O   O5        1.0  0.060576451117995575  0.7737999022920306  0.4096202027683158  1.0000
  O   O6        1.0  0.062905384253513  0.5583868031789725  0.625967593650026  1.0000
  O   O7        1.0  0.061073598457634964  0.5701117761415773  0.20694296645828536  1.0000
  O   O8        1.0  0.06340247112166808  0.3546969454112032  0.42329042733399724  1.0000
