data_image0
_chemical_formula_structural       NC9NC3OCH8C12OCH12C12NCOCH12Zn2C4O8
_chemical_formula_sum              "N3 C44 O11 H32 Zn2"
_cell_length_a       17.728193572023454
_cell_length_b       10.299790755002418
_cell_length_c       10.299158637457994
_cell_angle_alpha    85.57636928067032
_cell_angle_beta     90.68674526026633
_cell_angle_gamma    88.43583692371087

_space_group_name_H-M_alt    "P 1"
_space_group_IT_number       1

loop_
  _space_group_symop_operation_xyz
  'x, y, z'

loop_
  _atom_site_type_symbol
  _atom_site_label
  _atom_site_symmetry_multiplicity
  _atom_site_fract_x
  _atom_site_fract_y
  _atom_site_fract_z
  _atom_site_occupancy
  N   N1        1.0  0.7106168005330643  0.3864213650327752  0.5850691356824762  1.0000
  C   C1        1.0  0.6500058391324102  0.34899789689012894  0.5980771816626277  1.0000
  C   C2        1.0  0.5745535218715144  0.3024755385038762  0.6142668577164534  1.0000
  C   C3        1.0  0.5626663820668327  0.17444056439281885  0.6236963576910243  1.0000
  C   C4        1.0  0.4859581398735578  0.12499426826487305  0.6386507154214344  1.0000
  C   C5        1.0  0.4277983605845899  0.207670448121102  0.6561150046289963  1.0000
  C   C6        1.0  0.3497501363717292  0.16263009673269296  0.6778527038115779  1.0000
  C   C7        1.0  0.2884067074538647  0.24808641844296164  0.6423845741353259  1.0000
  C   C8        1.0  0.2141321348782688  0.2087907271527496  0.6625356471018748  1.0000
  C   C9        1.0  0.1518100785935885  0.29678313167602516  0.6249929624236403  1.0000
  N   N2        1.0  0.10171655501195691  0.36752049935428543  0.5948121927922636  1.0000
  C   C10       1.0  0.2005693458018217  0.08391923290851455  0.7192089580738622  1.0000
  C   C11       1.0  0.2610138151918614  0.9987809589951888  0.7560856460000671  1.0000
  C   C12       1.0  0.3351847795193542  0.03758706827063497  0.7360641931096563  1.0000
  O   O1        1.0  0.44114150300925686  0.34145595726320305  0.654810230272121  1.0000
  C   C13       1.0  0.5088691133527443  0.3988193581924886  0.60619613965656  1.0000
  H   H1        1.0  0.6096008730067526  0.10497892271589125  0.6215999762795303  1.0000
  H   H2        1.0  0.47831654626047304  0.02134408507665597  0.6366753160700558  1.0000
  H   H3        1.0  0.2982961103176525  0.34489645132965974  0.5979507474545311  1.0000
  H   H4        1.0  0.14335497509382433  0.05263653073957442  0.7353514689719438  1.0000
  H   H5        1.0  0.2503875620535769  0.9026299559540295  0.8009805687525552  1.0000
  H   H6        1.0  0.3807166482909826  0.9703677385354679  0.7684894272842469  1.0000
  H   H7        1.0  0.4994150244057456  0.434712635599769  0.5026661933859782  1.0000
  H   H8        1.0  0.5217322095025768  0.4832253340786694  0.6627732832593253  1.0000
  C   C14       1.0  0.9062381145674961  0.9955997435564939  0.5899813971964811  1.0000
  C   C15       1.0  0.884368874924346  0.9855359198576352  0.7208762767836938  1.0000
  C   C16       1.0  0.8732276849473325  0.8633031009645109  0.7871670643217321  1.0000
  C   C17       1.0  0.8842333087149801  0.750260155495678  0.7208071136675376  1.0000
  C   C18       1.0  0.9061025150314289  0.7583317657147223  0.5899113007238677  1.0000
  C   C19       1.0  0.9169842192513179  0.8814487933018341  0.5252320854957012  1.0000
  C   C20       1.0  0.8500958655915877  0.853710027314016  0.9256478683757674  1.0000
  C   C21       1.0  0.7950246116382126  0.7655208120112039  0.969342045902707  1.0000
  C   C22       1.0  0.7733215402622484  0.7567624067149268  0.0995420343875617  1.0000
  C   C23       1.0  0.8062012128464198  0.8355488579894083  0.1877103754116073  1.0000
  C   C24       1.0  0.8614730232486393  0.9243381118511081  0.1458929228881386  1.0000
  C   C25       1.0  0.8829422430406236  0.9327464492136407  0.015160402536963042  1.0000
  O   O2        1.0  0.896340122967991  0.005381936796290396  0.23063099039110324  1.0000
  C   C26       1.0  0.8801360048221174  0.007188750064066611  0.3655650794121101  1.0000
  H   H9        1.0  0.9146042538683795  0.32688438119251767  0.5401269441412394  1.0000
  H   H10       1.0  0.8749486150485969  0.073034681779661  0.7710709804924771  1.0000
  H   H11       1.0  0.8767006728057384  0.6557415482991483  0.7719879664699698  1.0000
  H   H12       1.0  0.9338559944519306  0.8884441835499046  0.4242522306476454  1.0000
  H   H13       1.0  0.9143981339492139  0.433957762909781  0.5400174553089053  1.0000
  H   H14       1.0  0.7680448998003411  0.7045731395133774  0.902459587519804  1.0000
  H   H15       1.0  0.7306945855428263  0.6888638668906338  0.1321593255714758  1.0000
  H   H16       1.0  0.7882984985721999  0.8266987827351702  0.2879322085007836  1.0000
  H   H17       1.0  0.9261778121632053  0.00018988055434388123  0.9840711493016892  1.0000
  H   H18       1.0  0.8931626155149919  0.910047370914394  0.4165127992393716  1.0000
  H   H19       1.0  0.9157394296797459  0.08012149227517852  0.40866686246707135  1.0000
  H   H20       1.0  0.8198898017285529  0.03501586384692333  0.3784998919646587  1.0000
  C   C27       1.0  0.9062410794918273  0.37682438189730283  0.20857505509038243  1.0000
  C   C28       1.0  0.9079701660690614  0.5134436574441097  0.19729263632285884  1.0000
  C   C29       1.0  0.9087875826714583  0.5828542408346702  0.07441317323866459  1.0000
  C   C30       1.0  0.9078256377067124  0.5138105107743869  0.9619775257973966  1.0000
  C   C31       1.0  0.9060995284449709  0.3771071827119945  0.9713177199187402  1.0000
  C   C32       1.0  0.9053211772753915  0.3094545148655994  0.09500464832818056  1.0000
  C   C33       1.0  0.9106176484628082  0.7273806261871645  0.06345131972185292  1.0000
  C   C34       1.0  0.9569241396575408  0.7929764449238662  0.14716635776895656  1.0000
  C   C35       1.0  0.9586524783117056  0.928983098646966  0.13671997143168932  1.0000
  C   C36       1.0  0.9145871688130325  0.0020978114074767817  0.041466457213123815  1.0000
  C   C37       1.0  0.8673819080935417  0.9369058148256265  0.9595120769324563  1.0000
  C   C38       1.0  0.8656845469800922  0.8009255733991528  0.9696982456839612  1.0000
  N   N3        1.0  0.9142740759436646  0.14215848368520456  0.030211037231358425  1.0000
  C   C39       1.0  0.9789163581036865  0.21802213235377496  0.055046064321964794  1.0000
  O   O3        1.0  0.0439903348492654  0.16546475753302214  0.06518763713487474  1.0000
  C   C40       1.0  0.9700386076876424  0.36226587657376985  0.059414890486811256  1.0000
  H   H21       1.0  0.907630884156161  0.5662771381836732  0.2842304221750622  1.0000
  H   H22       1.0  0.9094522727689468  0.566745338354238  0.8670418058365524  1.0000
  H   H23       1.0  0.903990075754684  0.20407675089564248  0.10299220873607329  1.0000
  H   H24       1.0  0.9032997286645328  0.11904928415267545  0.7816660459418596  1.0000
  H   H25       1.0  0.9922534303893861  0.7390421889910015  0.2202435849198443  1.0000
  H   H26       1.0  0.9934668850485506  0.9766400338686577  0.20461446999823596  1.0000
  H   H27       1.0  0.8320739489638967  0.9917140444753475  0.8870045952765362  1.0000
  H   H28       1.0  0.8283978207121018  0.7533413392392221  0.9054264027769747  1.0000
  H   H29       1.0  0.8653467764823118  0.19197786639163747  0.9940412806733281  1.0000
  H   H30       1.0  0.9169707362225484  0.386545125324467  0.10950876996221304  1.0000
  H   H31       1.0  0.9680013541201912  0.4090315287813619  0.9586412638354229  1.0000
  H   H32       1.0  0.01817673933512642  0.4007069979095048  0.11326530246991215  1.0000
  Zn  Zn1       1.0  0.8234797521442594  0.3809635158861646  0.5878882715837794  1.0000
  Zn  Zn2       1.0  0.9888536289077413  0.3729677486660057  0.5920036955999295  1.0000
  C   C41       1.0  0.906125518744338  0.3718800817219208  0.8271434319169497  1.0000
  C   C42       1.0  0.9062096678702314  0.38205273419259633  0.35274870752382204  1.0000
  C   C43       1.0  0.9061252035471311  0.61415747181832  0.5847492869245698  1.0000
  C   C44       1.0  0.9062099269014852  0.1397737865390789  0.595142920494262  1.0000
  O   O4        1.0  0.9689576512290542  0.3807673992220635  0.4026964848098311  1.0000
  O   O5        1.0  0.96889248160155  0.36709583451530864  0.7803187924763584  1.0000
  O   O6        1.0  0.9688913808102818  0.562737932439094  0.5845837842383288  1.0000
  O   O7        1.0  0.96895869560584  0.18512531328086412  0.5984313942674107  1.0000
  O   O8        1.0  0.843374629012174  0.5688059540012802  0.5814605715050747  1.0000
  O   O9        1.0  0.8433757295354087  0.37316541636458656  0.7771955103538204  1.0000
  O   O10       1.0  0.8434408995109236  0.38683693523382895  0.39957164128217726  1.0000
  O   O11       1.0  0.8434419438682046  0.19119484004001652  0.5953066481089836  1.0000
