data_image0
_chemical_formula_structural       NC9NC3OH6C7OCH10C6OCH7Zn2C4O8
_chemical_formula_sum              "N2 C31 O11 H23 Zn2"
_cell_length_a       15.78231758774541
_cell_length_b       10.30083208314754
_cell_length_c       9.273891588657154
_cell_angle_alpha    86.0566932857514
_cell_angle_beta     89.76748324947235
_cell_angle_gamma    89.62603918792362

_space_group_name_H-M_alt    "P 1"
_space_group_IT_number       1

loop_
  _space_group_symop_operation_xyz
  'x, y, z'

loop_
  _atom_site_type_symbol
  _atom_site_label
  _atom_site_symmetry_multiplicity
  _atom_site_fract_x
  _atom_site_fract_y
  _atom_site_fract_z
  _atom_site_occupancy
  N   N1        1.0  0.8029782975181134  0.40020008347417324  0.41225987576601725  1.0000
  C   C1        1.0  0.7543645574818886  0.3183617224269679  0.4390162768756976  1.0000
  C   C2        1.0  0.6940088160223462  0.21678042692806423  0.47222786324153804  1.0000
  C   C3        1.0  0.7135443012425933  0.08917723120855879  0.5138588334976075  1.0000
  C   C4        1.0  0.6367518514025339  0.02733640243765456  0.5341175731882737  1.0000
  C   C5        1.0  0.5750651185914627  0.12177774509584127  0.50335170615491  1.0000
  C   C6        1.0  0.48195643902943996  0.10431781513610483  0.5091416930379196  1.0000
  C   C7        1.0  0.4283184076957204  0.21137742019099723  0.4740815631633486  1.0000
  C   C8        1.0  0.3400973838455471  0.19706076105195725  0.4788371610170006  1.0000
  C   C9        1.0  0.28576600039369415  0.30723524618594666  0.44274778603895215  1.0000
  N   N2        1.0  0.24209645332802138  0.3958013061340633  0.4137351557199105  1.0000
  C   C10       1.0  0.3048329373535992  0.0755251720526644  0.5187073259582551  1.0000
  C   C11       1.0  0.3575402417258565  0.9686869491730503  0.5536998057954088  1.0000
  C   C12       1.0  0.4455752085691143  0.982610295204528  0.5490734402092399  1.0000
  O   O1        1.0  0.6116352030504164  0.2337021298445996  0.46678198800329823  1.0000
  H   H1        1.0  0.775962029549296  0.04614439549465566  0.5278418537861851  1.0000
  H   H2        1.0  0.6279183659758389  0.9256528862106466  0.5673090984990672  1.0000
  H   H3        1.0  0.45501865480487375  0.30595361571023294  0.44305026493820665  1.0000
  H   H4        1.0  0.23670434121183662  0.06339968652913773  0.5227327144272476  1.0000
  H   H5        1.0  0.3301103253310295  0.874757329444621  0.5845194280958967  1.0000
  H   H6        1.0  0.4845769671449563  0.8979869734764713  0.5767991048180894  1.0000
  C   C13       1.0  0.022564576216207874  0.01666492071795633  0.41314884706080274  1.0000
  C   C14       1.0  0.999458569198602  0.025120152986460642  0.2667123669632703  1.0000
  C   C15       1.0  0.9868336590859886  0.912243903078252  0.19340767169343234  1.0000
  C   C16       1.0  0.999398652967982  0.7898587188328726  0.26633133051256563  1.0000
  C   C17       1.0  0.02251824621986652  0.779326512551571  0.41285868805964165  1.0000
  C   C18       1.0  0.033766591354756445  0.8932641824102955  0.4854896295524631  1.0000
  C   C19       1.0  0.9645435698911686  0.9224549414936666  0.03567119185789514  1.0000
  O   O2        1.0  0.0400706162846145  0.9269432813385325  0.9535258971801458  1.0000
  C   C20       1.0  0.019999741690810646  0.9365654872527636  0.8051655448466466  1.0000
  H   H7        1.0  0.03237822604631124  0.34084210751674404  0.4688076917431668  1.0000
  H   H8        1.0  0.9912033059917719  0.11941901177094483  0.2090625251246665  1.0000
  H   H9        1.0  0.9911014872556843  0.7030084555242897  0.2084199045901165  1.0000
  H   H10       1.0  0.05159415660428056  0.8859801791707661  0.5984235743699069  1.0000
  H   H11       1.0  0.06706237226208756  0.5522258402962248  0.6888350219819352  1.0000
  H   H12       1.0  0.9256119603184608  0.011919980621926344  0.011444101741600711  1.0000
  H   H13       1.0  0.9256470619550519  0.83682747240317  0.011113713672962206  1.0000
  H   H14       1.0  0.07989806662948107  0.9399881850550232  0.7420564512642298  1.0000
  H   H15       1.0  0.9840077203993277  0.027589477274315044  0.7749864903930912  1.0000
  H   H16       1.0  0.9840236161944275  0.8501043957063301  0.7746293625097471  1.0000
  C   C21       1.0  0.02392969105944374  0.39454262871318435  0.9897343940980594  1.0000
  C   C22       1.0  0.0933158961474862  0.44869631348365013  0.05852034743710899  1.0000
  C   C23       1.0  0.15789530818185715  0.512594870282004  0.9789030182720242  1.0000
  C   C24       1.0  0.15331943809737414  0.5226628197263905  0.8274432209886466  1.0000
  C   C25       1.0  0.08571340886509254  0.467705017253989  0.7573213494916315  1.0000
  C   C26       1.0  0.021153084974338647  0.4014487597891512  0.8362730906964152  1.0000
  O   O3        1.0  0.22496762684227523  0.5651728935955425  0.05431471358649875  1.0000
  C   C27       1.0  0.29473782178527297  0.6328153555488076  0.9874467545535285  1.0000
  H   H17       1.0  0.8223936525098815  0.31680389966414935  0.10010487913631683  1.0000
  H   H18       1.0  0.20212627058346821  0.5717610417150509  0.762666200261727  1.0000
  H   H19       1.0  0.08502931849604711  0.4744045349902668  0.6402353299109227  1.0000
  H   H20       1.0  0.8867556364129721  0.34394982858716006  0.5604012960439091  1.0000
  H   H21       1.0  0.27198795687999944  0.7209187972797295  0.9229413273604217  1.0000
  H   H22       1.0  0.33007129074133745  0.5680134189914032  0.9171773027780978  1.0000
  H   H23       1.0  0.3381092784714337  0.6634201516653664  0.0724242073880188  1.0000
  Zn  Zn1       1.0  0.9296982810979528  0.39892729052645004  0.4126939277754398  1.0000
  Zn  Zn2       1.0  0.1153764032532842  0.39706359665708324  0.4133128904617258  1.0000
  C   C28       1.0  0.02167636127951767  0.3949701812413235  0.6762611309336805  1.0000
  C   C29       1.0  0.023400350107431786  0.40102232522211906  0.14974583491011528  1.0000
  C   C30       1.0  0.02254145912242421  0.635120424748866  0.40716973733675227  1.0000
  C   C31       1.0  0.022535188748344027  0.16087052281039568  0.41883730573524214  1.0000
  O   O4        1.0  0.09368657848098438  0.40248404320329706  0.20368203143847796  1.0000
  O   O5        1.0  0.09231553274302208  0.3920929797138631  0.6227942982151793  1.0000
  O   O6        1.0  0.09301315538924454  0.5860173602217507  0.40550109033913384  1.0000
  O   O7        1.0  0.09298889282930412  0.2085596717391021  0.42097513102669804  1.0000
  O   O8        1.0  0.9520857281591268  0.587431216081771  0.4050316869916639  1.0000
  O   O9        1.0  0.9513881056662796  0.39350839511540303  0.6223248174207068  1.0000
  O   O10       1.0  0.952759157147298  0.40389939921459855  0.20321081771191474  1.0000
  O   O11       1.0  0.9520614711382707  0.2099750193440502  0.42050402536915654  1.0000
