data_image0
_chemical_formula_structural       NC9NC3OH6C9H9C7NC2NH7Zn2C4O8
_chemical_formula_sum              "N4 C34 O9 H22 Zn2"
_cell_length_a       15.78231758774541
_cell_length_b       9.272676604525723
_cell_length_c       9.27399911348925
_cell_angle_alpha    85.31615258212881
_cell_angle_beta     89.74395178918073
_cell_angle_gamma    90.18380166211226

_space_group_name_H-M_alt    "P 1"
_space_group_IT_number       1

loop_
  _space_group_symop_operation_xyz
  'x, y, z'

loop_
  _atom_site_type_symbol
  _atom_site_label
  _atom_site_symmetry_multiplicity
  _atom_site_fract_x
  _atom_site_fract_y
  _atom_site_fract_z
  _atom_site_occupancy
  N   N1        1.0  0.8122958569080763  0.582976584507314  0.41757888167797064  1.0000
  C   C1        1.0  0.7631558985714966  0.4916269316778728  0.4439396979679639  1.0000
  C   C2        1.0  0.7021469922042372  0.37823980460101825  0.47666026793237176  1.0000
  C   C3        1.0  0.7208620170025059  0.23580806598394652  0.5176743256516114  1.0000
  C   C4        1.0  0.6436719211874323  0.1667793516034679  0.5376341950410501  1.0000
  C   C5        1.0  0.5825924126145695  0.27219474165393853  0.5073249746126569  1.0000
  C   C6        1.0  0.4893714435079897  0.25270416308677524  0.5130306695045241  1.0000
  C   C7        1.0  0.43642181843595734  0.3722073105527568  0.47848796303382396  1.0000
  C   C8        1.0  0.34810871805163535  0.35622543441696375  0.483174454008884  1.0000
  C   C9        1.0  0.29448577247132673  0.4792056673964542  0.44761754500666573  1.0000
  N   N2        1.0  0.25138571837705725  0.5780659205083394  0.41903294674078184  1.0000
  C   C10       1.0  0.31206276365703267  0.22056252756974737  0.5224573215444122  1.0000
  C   C11       1.0  0.36408308393313543  0.1013064075258847  0.5569334541452691  1.0000
  C   C12       1.0  0.4522075981401174  0.11684924814184726  0.5523742950899451  1.0000
  O   O1        1.0  0.6198821612212566  0.39712662040259555  0.4712962986850351  1.0000
  H   H1        1.0  0.7830030694012956  0.1877754639396654  0.5314492261021266  1.0000
  H   H2        1.0  0.6341846284532733  0.0532790723787655  0.5703341412519547  1.0000
  H   H3        1.0  0.4637302184527766  0.4777771525760259  0.44791367938131454  1.0000
  H   H4        1.0  0.24385618400920275  0.20702672945311745  0.5264241769561893  1.0000
  H   H5        1.0  0.3360491721730749  0.9964582916500281  0.5872991868850264  1.0000
  H   H6        1.0  0.4906652148586454  0.022389923171992402  0.5796909884602395  1.0000
  C   C13       1.0  0.029450648351767573  0.1570754154247538  0.41645426667587904  1.0000
  C   C14       1.0  0.9951127096985392  0.2205321675704968  0.5358707424398284  1.0000
  C   C15       1.0  0.9685142212369247  0.13563606377134563  0.6588401946327913  1.0000
  C   C16       1.0  0.9753947393626837  0.9847439911300412  0.6665311368175391  1.0000
  C   C17       1.0  0.008348440995125543  0.9198626013449498  0.5459981025728111  1.0000
  C   C18       1.0  0.03423893330550043  0.0039558001732527  0.42017001892857464  1.0000
  C   C19       1.0  0.9457117863381483  0.9002696748914772  0.8050752827703795  1.0000
  C   C20       1.0  0.9029413673971274  0.7547769285865786  0.7905635673902689  1.0000
  C   C21       1.0  0.9921903875177336  0.7606980042492087  0.8519274301141726  1.0000
  H   H7        1.0  0.049101846644433476  0.45771151903569995  0.18001463140993823  1.0000
  H   H8        1.0  0.9906425946539443  0.3371058777993796  0.5357171956805822  1.0000
  H   H9        1.0  0.9430937867343367  0.18858849270406133  0.7494398167065288  1.0000
  H   H10       1.0  0.05747368697117672  0.9299135928690928  0.06685405371851472  1.0000
  H   H11       1.0  0.9214061167445812  0.9598844861948853  0.8958665236017337  1.0000
  H   H12       1.0  0.899398497508975  0.7165106459377074  0.6805248594321425  1.0000
  H   H13       1.0  0.8535435370651827  0.7258324775355539  0.8736635491624398  1.0000
  H   H14       1.0  0.042835418269930654  0.7258995408900523  0.7792491237128554  1.0000
  H   H15       1.0  0.994952068421599  0.7352079427857613  0.9709106961395837  1.0000
  C   C22       1.0  0.033328919145583225  0.5841897284481474  0.9944817848888801  1.0000
  C   C23       1.0  0.09944704270143379  0.5143984423336658  0.07288360596441268  1.0000
  C   C24       1.0  0.15989874210685084  0.43440414825255264  0.004085119631628054  1.0000
  C   C25       1.0  0.15585364103109833  0.42144441418909073  0.8547185167160354  1.0000
  C   C26       1.0  0.09102441742878947  0.49365657388891  0.7747729585287488  1.0000
  C   C27       1.0  0.0303606331181334  0.5768415063327583  0.842142440499527  1.0000
  C   C28       1.0  0.22038834295414345  0.3344766768653933  0.7838599019308994  1.0000
  N   N3        1.0  0.2910531542754706  0.2833002740351209  0.8519126125059096  1.0000
  C   C29       1.0  0.3316603049712683  0.21069121682287517  0.7524088721630067  1.0000
  C   C30       1.0  0.28542101244520124  0.21839520355067288  0.6267450691761751  1.0000
  N   N4        1.0  0.21543854135647073  0.29617960288174805  0.6466827703462052  1.0000
  H   H16       1.0  0.9441695848892747  0.7672053308997009  0.26155887186028726  1.0000
  H   H17       1.0  0.10330928776774856  0.5186465889970426  0.18906629472951164  1.0000
  H   H18       1.0  0.2092848964186046  0.3807276415347547  0.06874431189031638  1.0000
  H   H19       1.0  0.08890657734738178  0.48977837377695854  0.658643903582417  1.0000
  H   H20       1.0  0.8986270233107285  0.6597044573756741  0.5562996163412088  1.0000
  H   H21       1.0  0.3912849608984297  0.15513914379742588  0.7707349938344685  1.0000
  H   H22       1.0  0.16763043976787817  0.31857222107293515  0.5709145382873624  1.0000
  Zn  Zn1       1.0  0.9390076514805916  0.5815555490486384  0.4180068043314962  1.0000
  Zn  Zn2       1.0  0.12467378745583163  0.5794750847682864  0.4186167707855275  1.0000
  C   C31       1.0  0.03088733247995166  0.5724859996509908  0.6818912501453231  1.0000
  C   C32       1.0  0.032796143715785514  0.588546429629494  0.1547324812737838  1.0000
  C   C33       1.0  0.033349600928943346  0.8439272991890001  0.41371626153808405  1.0000
  C   C34       1.0  0.030333801847193902  0.31710339768197726  0.42290753901927913  1.0000
  O   O2        1.0  0.10307663484156965  0.5892127621444132  0.20874553037773547  1.0000
  O   O3        1.0  0.10152313784178352  0.5702395586712885  0.6283407312235885  1.0000
  O   O4        1.0  0.10351049567332654  0.7894318385255883  0.4117875339986581  1.0000
  O   O5        1.0  0.10108921409201832  0.37002049425336536  0.4252986192234667  1.0000
  O   O6        1.0  0.9625921614857004  0.7910101402751553  0.41132495567782  1.0000
  O   O7        1.0  0.960604813715052  0.5718195935419588  0.6278780835487587  1.0000
  O   O8        1.0  0.9621583165634577  0.5907927618079036  0.20828114723631974  1.0000
  O   O9        1.0  0.9601708953732097  0.37160048266519996  0.42483434424551425  1.0000
