data_image0
_chemical_formula_structural       NC9NC3SH6C7NC2NH8C8NH7Zn2C4O8
_chemical_formula_sum              "N5 C33 S1 H21 Zn2 O8"
_cell_length_a       16.77567553997237
_cell_length_b       9.273995741505848
_cell_length_c       9.274266800404106
_cell_angle_alpha    86.13411906663325
_cell_angle_beta     89.94189520236782
_cell_angle_gamma    91.47570659476311

_space_group_name_H-M_alt    "P 1"
_space_group_IT_number       1

loop_
  _space_group_symop_operation_xyz
  'x, y, z'

loop_
  _atom_site_type_symbol
  _atom_site_label
  _atom_site_symmetry_multiplicity
  _atom_site_fract_x
  _atom_site_fract_y
  _atom_site_fract_z
  _atom_site_occupancy
  N   N1        1.0  0.766474044651822  0.5875351648551668  0.4219165377531169  1.0000
  C   C1        1.0  0.7118365355843914  0.6426628965155752  0.4682386998766852  1.0000
  C   C2        1.0  0.644030582154626  0.7110727631346473  0.525720960482187  1.0000
  C   C3        1.0  0.6462659500997826  0.8096905465777338  0.6314921324923982  1.0000
  C   C4        1.0  0.5707514018521349  0.8582330293795377  0.6665995522730465  1.0000
  C   C5        1.0  0.5087444009886587  0.7976267613594301  0.5880578244408601  1.0000
  C   C6        1.0  0.4223654126403337  0.8266647874736733  0.6001803355692108  1.0000
  C   C7        1.0  0.3653269212732138  0.7377911086204323  0.5352452796616157  1.0000
  C   C8        1.0  0.2837900586359124  0.7645875317413999  0.5461889560285479  1.0000
  C   C9        1.0  0.2260740099630151  0.6727385107684741  0.479697125218648  1.0000
  N   N2        1.0  0.1796873621986557  0.5989050623485406  0.42624751632877933  1.0000
  C   C10       1.0  0.258464587289587  0.8806045435465479  0.6218897897936844  1.0000
  C   C11       1.0  0.3144146106935475  0.9696508055598546  0.6863129585858984  1.0000
  C   C12       1.0  0.3957946949649055  0.9432602478113863  0.6756973632833622  1.0000
  S   S1        1.0  0.5491696632596486  0.6834119121511322  0.4755225613478604  1.0000
  H   H1        1.0  0.7006512748958422  0.8454533465334666  0.6823893849895222  1.0000
  H   H2        1.0  0.562562870419984  0.9342510463578723  0.7483678562282046  1.0000
  H   H3        1.0  0.38386398264689425  0.6470658703521065  0.47678508908328193  1.0000
  H   H4        1.0  0.19556386442397158  0.9022831264364369  0.6309255959353024  1.0000
  H   H5        1.0  0.294694575926671  0.05969423591093781  0.7444189249437954  1.0000
  H   H6        1.0  0.43742741768519056  0.015421617572432197  0.7255723563819766  1.0000
  C   C13       1.0  0.9707044676253389  0.16965789866681424  0.42300408922801874  1.0000
  C   C14       1.0  0.9852644627689547  0.25232188595399285  0.29279268152239696  1.0000
  C   C15       1.0  0.0069357305798984905  0.1868712388792868  0.16806267775420164  1.0000
  C   C16       1.0  0.014943932833118234  0.03665923092790235  0.1699841603089658  1.0000
  C   C17       1.0  0.9987147961085101  0.9526628073649983  0.2989839161305827  1.0000
  C   C18       1.0  0.9754644540363259  0.016771504748033458  0.42517248849235756  1.0000
  C   C19       1.0  0.038890151773723236  0.9693210909518284  0.03627872453309711  1.0000
  N   N3        1.0  0.042357971272805266  0.04272352944759383  0.9053277066235244  1.0000
  C   C20       1.0  0.06666386812950376  0.9448282539667033  0.8149208857553059  1.0000
  C   C21       1.0  0.07771164422555964  0.8147888950641213  0.8915628211891061  1.0000
  N   N4        1.0  0.060279118006651755  0.8303482114592177  0.03075769242441218  1.0000
  H   H7        1.0  0.9051523247692866  0.43400415426890654  0.6297825310511851  1.0000
  H   H8        1.0  0.9818151410517704  0.3690361562926101  0.2881072107586755  1.0000
  H   H9        1.0  0.018610017127120845  0.2546616125129324  0.07026004436684175  1.0000
  H   H10       1.0  0.0014060911453168685  0.8361896667043826  0.30100981051977405  1.0000
  H   H11       1.0  0.9754767503075358  0.7205300612221344  0.6648923965240648  1.0000
  H   H12       1.0  0.07597959104834673  0.9672485151699595  0.7000885607454261  1.0000
  H   H13       1.0  0.09747791055366051  0.7159023810938653  0.8490367950947832  1.0000
  H   H14       1.0  0.06425005967551356  0.7505455661348874  0.11506141659223212  1.0000
  C   C22       1.0  0.9749005556181989  0.5901115347427206  0.0007887253162479627  1.0000
  C   C23       1.0  0.9279865632329293  0.485582526304581  0.08118826021503533  1.0000
  C   C24       1.0  0.8763108530818299  0.39213839426465763  0.012519436708439363  1.0000
  C   C25       1.0  0.8698359720062033  0.40176224238474245  0.8617782263793061  1.0000
  C   C26       1.0  0.9178251679392737  0.5028730388057014  0.7800750859846803  1.0000
  C   C27       1.0  0.971268341480926  0.5963179176516566  0.8473878437166188  1.0000
  C   C28       1.0  0.8149625474898856  0.29952605940561283  0.7878693388656576  1.0000
  C   C29       1.0  0.8573976622852404  0.16884909312498791  0.7567692467224716  1.0000
  N   N5        1.0  0.8908946177769744  0.06571496037288928  0.7322213430312265  1.0000
  H   H15       1.0  0.06451666975892123  0.9099744214213262  0.08195719928644762  1.0000
  H   H16       1.0  0.9299802356407249  0.47816843948053744  0.19820449767339565  1.0000
  H   H17       1.0  0.8406849192801101  0.3129759315398641  0.07719445001587943  1.0000
  H   H18       1.0  0.9147385957038173  0.5060786346080266  0.6631599693176115  1.0000
  H   H19       1.0  0.034485292470913365  0.8089497092413901  0.5522379532945059  1.0000
  H   H20       1.0  0.7925168459144996  0.35171389759104943  0.6849971226607092  1.0000
  H   H21       1.0  0.7625028155735613  0.2684513944212856  0.8574069435629476  1.0000
  Zn  Zn1       1.0  0.8857184276805959  0.5908124817938174  0.42317468777369327  1.0000
  Zn  Zn2       1.0  0.06044285730048626  0.5956160657142794  0.42500117390901626  1.0000
  C   C30       1.0  0.9719208590224349  0.5893986542420382  0.6873477849285727  1.0000
  C   C31       1.0  0.9742423435631813  0.5970317666695426  0.16082824283899136  1.0000
  C   C32       1.0  0.9745852545246944  0.856606820684316  0.41901842464815564  1.0000
  C   C33       1.0  0.9715778783725283  0.32982186622197807  0.4291576749114947  1.0000
  O   O1        1.0  0.04032841668299558  0.601170902203769  0.21523209276056648  1.0000
  O   O2        1.0  0.038446580802095294  0.588904236598176  0.6343297779867803  1.0000
  O   O3        1.0  0.04059721358526126  0.8046781967227955  0.41765191558062864  1.0000
  O   O4        1.0  0.038177724799898005  0.38539694996573837  0.4319098464890785  1.0000
  O   O5        1.0  0.9079835005563524  0.8010315959046461  0.41626601456276324  1.0000
  O   O6        1.0  0.9058328778367488  0.5852593681476006  0.6329438045459601  1.0000
  O   O7        1.0  0.907714720923706  0.5975259707866135  0.21384438611842382  1.0000
  O   O8        1.0  0.9055640285157089  0.381752009024281  0.43052224789370763  1.0000
