data_image0
_chemical_formula_structural       NC9NC3OH6C7OH6C6NH7Zn2C4O8
_chemical_formula_sum              "N3 C29 O10 H19 Zn2"
_cell_length_a       15.78231758774541
_cell_length_b       9.274078303013075
_cell_length_c       9.274774538082514
_cell_angle_alpha    85.24273556262948
_cell_angle_beta     90.43038941912484
_cell_angle_gamma    89.04960325712263

_space_group_name_H-M_alt    "P 1"
_space_group_IT_number       1

loop_
  _space_group_symop_operation_xyz
  'x, y, z'

loop_
  _atom_site_type_symbol
  _atom_site_label
  _atom_site_symmetry_multiplicity
  _atom_site_fract_x
  _atom_site_fract_y
  _atom_site_fract_z
  _atom_site_occupancy
  N   N1        1.0  0.7827310670990584  0.5832368921249387  0.4155576580437037  1.0000
  C   C1        1.0  0.7348398715887802  0.49187696300570805  0.44203896700398904  1.0000
  C   C2        1.0  0.6753809862089852  0.37847708052659357  0.4749090976420353  1.0000
  C   C3        1.0  0.6960424568878351  0.23602932558589182  0.5161110318810327  1.0000
  C   C4        1.0  0.619796276641825  0.1669928429496388  0.5361619496319179  1.0000
  C   C5        1.0  0.557276502983065  0.2724200835248005  0.505713676886882  1.0000
  C   C6        1.0  0.4643225452116617  0.2529273064455381  0.5114450755590578  1.0000
  C   C7        1.0  0.4097388893094772  0.3724439015106906  0.47674474461266264  1.0000
  C   C8        1.0  0.32164478865182866  0.3564602220600097  0.48145231169149727  1.0000
  C   C9        1.0  0.2663402038161816  0.47945429458032457  0.44573319248513554  1.0000
  N   N2        1.0  0.22188831850258728  0.5783256730031565  0.41701819821138164  1.0000
  C   C10       1.0  0.28745431296648916  0.22078204411711422  0.5209141143006302  1.0000
  C   C11       1.0  0.3411053203414754  0.10151250391902966  0.5555475452618832  1.0000
  C   C12       1.0  0.42901684100074544  0.11705709841431133  0.5509678891646312  1.0000
  O   O1        1.0  0.5928585767311353  0.39736601468403926  0.4695202110588568  1.0000
  H   H1        1.0  0.758839517079872  0.18799132643590985  0.5299492937313515  1.0000
  H   H2        1.0  0.6118601765944972  0.05347979948582316  0.5690116089272508  1.0000
  H   H3        1.0  0.4356033604125982  0.4780256275416841  0.4460312179955565  1.0000
  H   H4        1.0  0.2194331978599442  0.20724471886068466  0.5248988201896478  1.0000
  H   H5        1.0  0.31450546940970076  0.9966525852459281  0.5860515690065979  1.0000
  H   H6        1.0  0.46876614221812507  0.022587143060155405  0.578409173476214  1.0000
  C   C13       1.0  0.0048347379155537695  0.15729687250862767  0.4150021748224865  1.0000
  C   C14       1.0  0.9879758876135629  0.24208345651098948  0.2846670165682576  1.0000
  C   C15       1.0  0.9638134665691259  0.1783423056965128  0.1592371707814992  1.0000
  C   C16       1.0  0.9562844351317077  0.02774065357658806  0.16406176383992088  1.0000
  C   C17       1.0  0.9740870812441339  0.9419082903812012  0.29171412889932724  1.0000
  C   C18       1.0  0.999792859235242  0.004254394845117044  0.4175861753449877  1.0000
  C   C19       1.0  0.9458670398847341  0.270629579683048  0.024862307663142003  1.0000
  O   O2        1.0  0.9236726103503652  0.21657519088434457  0.9105178206594221  1.0000
  H   H7        1.0  0.003521782818601603  0.23084710059139435  0.7703288418147035  1.0000
  H   H8        1.0  0.9917548394296926  0.3589338968652036  0.281566850729259  1.0000
  H   H9        1.0  0.9374014605873542  0.9759294077287726  0.06872326719859312  1.0000
  H   H10       1.0  0.9696672508462846  0.8255272898413948  0.29092741376509035  1.0000
  H   H11       1.0  0.002616349462556177  0.7032554073569172  0.6562721345185976  1.0000
  H   H12       1.0  0.9517112824949637  0.3868920033808816  0.02336525387596589  1.0000
  C   C20       1.0  0.000771067224932584  0.5844810563177182  0.9924840360351593  1.0000
  C   C21       1.0  0.06030893147320681  0.6689110756598295  0.05967986911338507  1.0000
  C   C22       1.0  0.1237191627179204  0.7414193420002271  0.9793506770685401  1.0000
  C   C23       1.0  0.12810664943860717  0.729823895613023  0.8303523958978394  1.0000
  C   C24       1.0  0.06882174211315756  0.6485676546282391  0.7614645964794913  1.0000
  C   C25       1.0  0.0038565074016605437  0.5770701943668815  0.8401042718243724  1.0000
  N   N3        1.0  0.18423103169985  0.8256378535641653  0.04955437848257337  1.0000
  H   H13       1.0  0.8757850716895059  0.3039908424801179  0.11712304146153207  1.0000
  H   H14       1.0  0.05874287170240028  0.6757676569090514  0.17571579212146246  1.0000
  H   H15       1.0  0.17706896816358286  0.7849898948504195  0.7671555486038537  1.0000
  H   H16       1.0  0.0726243016417325  0.6445140046922864  0.6452918754790441  1.0000
  H   H17       1.0  0.9170454152381305  0.39256946962970685  0.573164222618185  1.0000
  H   H18       1.0  0.18171646597988111  0.834708778830469  0.16094370796821988  1.0000
  H   H19       1.0  0.2319770089152382  0.8796834837318463  0.9906386883557012  1.0000
  Zn  Zn1       1.0  0.9094624131341631  0.5818156955039664  0.41598745402256876  1.0000
  Zn  Zn2       1.0  0.09515705698641858  0.5797349964820693  0.4166001640956649  1.0000
  C   C26       1.0  0.003305607211394607  0.5727260389597679  0.6798683659303701  1.0000
  C   C27       1.0  0.0013158803727140176  0.5888264486425367  0.15271940608167986  1.0000
  C   C28       1.0  0.0007205728721975081  0.8442117431486654  0.4113465994134565  1.0000
  C   C29       1.0  0.0039008619415314954  0.31733901188071734  0.4212412440474955  1.0000
  O   O3        1.0  0.07196891168070296  0.589488896145659  0.20672836112271128  1.0000
  O   O4        1.0  0.0735905188696994  0.5704833047600519  0.6263240248885344  1.0000
  O   O5        1.0  0.07150212643984966  0.789711441821893  0.409490800030269  1.0000
  O   O6        1.0  0.07405724029023573  0.3702607710560817  0.4235614775922214  1.0000
  O   O7        1.0  0.9305621664618398  0.7912899216416311  0.40902614030933737  1.0000
  O   O8        1.0  0.9326505482935638  0.5720635178643896  0.625859293502026  1.0000
  O   O9        1.0  0.931028935143864  0.5910690741663829  0.2062618944195973  1.0000
  O   O10       1.0  0.9331172642052084  0.3718409378162184  0.4230951190611887  1.0000
