data_image0
_chemical_formula_structural       NC5OC5NC4H8C6NH7C7NH4Zn2C4O8
_chemical_formula_sum              "N4 C31 O9 H19 Zn2"
_cell_length_a       19.189071930511275
_cell_length_b       9.274771166103582
_cell_length_c       9.275157849593905
_cell_angle_alpha    86.00874675488272
_cell_angle_beta     89.71899716240229
_cell_angle_gamma    90.58817672672019

_space_group_name_H-M_alt    "P 1"
_space_group_IT_number       1

loop_
  _space_group_symop_operation_xyz
  'x, y, z'

loop_
  _atom_site_type_symbol
  _atom_site_label
  _atom_site_symmetry_multiplicity
  _atom_site_fract_x
  _atom_site_fract_y
  _atom_site_fract_z
  _atom_site_occupancy
  N   N1        1.0  0.6675705736077694  0.563139034798941  0.40699793162776254  1.0000
  C   C1        1.0  0.6134152160960333  0.6141671138144602  0.3866065237029812  1.0000
  C   C2        1.0  0.5460529241718955  0.6776375376399155  0.3612426780807019  1.0000
  C   C3        1.0  0.5371402940464621  0.7842071757922153  0.24850561998832799  1.0000
  C   C4        1.0  0.47170520670651717  0.8459430470854499  0.22400712504989115  1.0000
  C   C5        1.0  0.4145266090161775  0.8009797915484016  0.3107419816606283  1.0000
  O   O1        1.0  0.3499462442106699  0.8667250730098683  0.28372279714721294  1.0000
  C   C6        1.0  0.2845858491543947  0.8007632217604668  0.3101162811185625  1.0000
  C   C7        1.0  0.2281859487376544  0.8872654113182028  0.34353669271177845  1.0000
  C   C8        1.0  0.1620215184195299  0.8258557103647901  0.36897856610002244  1.0000
  C   C9        1.0  0.15159672571132654  0.6771297452543745  0.35977422779556734  1.0000
  C   C10       1.0  0.0834838328480387  0.6138873329203451  0.3857973447896217  1.0000
  N   N2        1.0  0.02872506997861768  0.5630426353820532  0.4067192611037058  1.0000
  C   C11       1.0  0.2075262083247064  0.5902646511698602  0.3242267663324241  1.0000
  C   C12       1.0  0.2736818960008813  0.6517186257928127  0.2988332337576549  1.0000
  C   C13       1.0  0.42392262091274946  0.6954300187571216  0.4252730792058198  1.0000
  C   C14       1.0  0.4893486265776701  0.6336902448045831  0.4498396921796195  1.0000
  H   H1        1.0  0.58071761104164  0.8196570800625338  0.17976031313356877  1.0000
  H   H2        1.0  0.46527636767785663  0.9284494532037048  0.13677876535273167  1.0000
  H   H3        1.0  0.235785278071665  0.002377155516922973  0.350623122741772  1.0000
  H   H4        1.0  0.11905931791644962  0.8942749440869868  0.39560100183157687  1.0000
  H   H5        1.0  0.1999249521362629  0.47530618040720074  0.3153924497816408  1.0000
  H   H6        1.0  0.31594425551547234  0.5834947021901848  0.26842224549102517  1.0000
  H   H7        1.0  0.38106063005551605  0.6624247365073295  0.496736240774636  1.0000
  H   H8        1.0  0.495787291473392  0.5523593494538104  0.5382771076575816  1.0000
  C   C15       1.0  0.8460099990515696  0.1395024417347448  0.4076457353892151  1.0000
  C   C16       1.0  0.8302493210290154  0.2215737530133084  0.2787856522147347  1.0000
  C   C17       1.0  0.820996873744437  0.15527731302295766  0.14910290836820628  1.0000
  C   C18       1.0  0.8275436454974431  0.005523028056957147  0.14734086201260777  1.0000
  C   C19       1.0  0.8420194603515414  0.9221155749229127  0.2744316088083675  1.0000
  C   C20       1.0  0.8502922622848891  0.9866683224726779  0.40608394852399043  1.0000
  N   N3        1.0  0.8056673792546039  0.24043436083834901  0.018826111819161055  1.0000
  H   H9        1.0  0.923763887460739  0.22218070001028156  0.7229757672350389  1.0000
  H   H10       1.0  0.8267367596273393  0.3381620647884642  0.2782347933846929  1.0000
  H   H11       1.0  0.8207546499518089  0.9530762349097907  0.047562819831786105  1.0000
  H   H12       1.0  0.8450994215326778  0.8059109729645783  0.2703019742995916  1.0000
  H   H13       1.0  0.8998335361045665  0.6916561757685233  0.6206226102697489  1.0000
  H   H14       1.0  0.8008660770796745  0.3525090921055003  0.01878300995912151  1.0000
  H   H15       1.0  0.7989389255541389  0.19202759322996996  0.9214179945678816  1.0000
  C   C21       1.0  0.8490552078733441  0.5590078176479256  0.9836738598359606  1.0000
  C   C22       1.0  0.9093580244716635  0.6060157167265945  0.0532368501472673  1.0000
  C   C23       1.0  0.9661433883319416  0.6643671135365015  0.9732074907276651  1.0000
  C   C24       1.0  0.9632891772493288  0.676638341777611  0.8225281723985178  1.0000
  C   C25       1.0  0.9044131996231483  0.6284620034628359  0.7516246880527948  1.0000
  C   C26       1.0  0.8472470621251319  0.5671628712202108  0.8300558238907656  1.0000
  C   C27       1.0  0.027139378918542567  0.7133836418408186  0.046073842719952296  1.0000
  N   N4        1.0  0.0761645337961705  0.7527797134708449  0.10464611062876594  1.0000
  H   H16       1.0  0.6792514457075216  0.510417779091108  0.09173197187981952  1.0000
  H   H17       1.0  0.00691434918529121  0.7222538554555558  0.759587773163914  1.0000
  H   H18       1.0  0.9042973678395387  0.6360456903935972  0.6345463862057501  1.0000
  H   H19       1.0  0.7336188272662914  0.5283912858914745  0.5528083865302751  1.0000
  Zn  Zn1       1.0  0.7717919314567622  0.5631074480518217  0.40692583629046003  1.0000
  Zn  Zn2       1.0  0.9245036449122122  0.5630625796741371  0.40680316093038704  1.0000
  C   C28       1.0  0.8475582221591675  0.5598749898932824  0.6700820797228173  1.0000
  C   C29       1.0  0.8487390307146461  0.5662968587289836  0.14364705424786273  1.0000
  C   C30       1.0  0.8494914963223051  0.8264805756458431  0.40063644100915735  1.0000
  C   C31       1.0  0.846805695517386  0.2996895406957185  0.4130927730299175  1.0000
  O   O2        1.0  0.9065861863547418  0.5687198072176243  0.19728897660744238  1.0000
  O   O3        1.0  0.9056157189089411  0.5574168951640999  0.6163466367665029  1.0000
  O   O4        1.0  0.9071760778058222  0.7727042920147349  0.3987673749951264  1.0000
  O   O5        1.0  0.9050257756306951  0.3534324196598819  0.41486813034859193  1.0000
  O   O6        1.0  0.7912697486252903  0.7727376080828854  0.3988608669065343  1.0000
  O   O7        1.0  0.7897093986495428  0.5574519435297638  0.6164400486437958  1.0000
  O   O8        1.0  0.7906798695891014  0.5687547886229478  0.19738065594882848  1.0000
  O   O9        1.0  0.7891194585792313  0.3534673917891218  0.4149599177544848  1.0000
