data_image0
_chemical_formula_structural       NC9NC3OH6C7OH5C8H10Zn2C4O8
_chemical_formula_sum              "N2 C31 O10 H21 Zn2"
_cell_length_a       15.78231758774541
_cell_length_b       9.274078303013075
_cell_length_c       9.275657083861812
_cell_angle_alpha    86.02466005452891
_cell_angle_beta     89.58874472212383
_cell_angle_gamma    89.04960325712263

_space_group_name_H-M_alt    "P 1"
_space_group_IT_number       1

loop_
  _space_group_symop_operation_xyz
  'x, y, z'

loop_
  _atom_site_type_symbol
  _atom_site_label
  _atom_site_symmetry_multiplicity
  _atom_site_fract_x
  _atom_site_fract_y
  _atom_site_fract_z
  _atom_site_occupancy
  N   N1        1.0  0.7966167233760344  0.5611663437757082  0.41739249247755184  1.0000
  C   C1        1.0  0.7484934522993248  0.47017528703149675  0.44384313524302144  1.0000
  C   C2        1.0  0.6887465013183199  0.3572332702558429  0.47667520122832263  1.0000
  C   C3        1.0  0.7090468885537148  0.21535943918578224  0.5178294223220192  1.0000
  C   C4        1.0  0.6326249870810282  0.14660225655177594  0.537857120474851  1.0000
  C   C5        1.0  0.5703720544668235  0.25160536678279377  0.5074441077943843  1.0000
  C   C6        1.0  0.47736786815138216  0.23219242543384053  0.5131688693253027  1.0000
  C   C7        1.0  0.42308831726801716  0.3512256609524782  0.47850872246159737  1.0000
  C   C8        1.0  0.3349529606702652  0.33530755573196647  0.4832108380285989  1.0000
  C   C9        1.0  0.27996140925885943  0.457804077456925  0.4475330826940114  1.0000
  N   N2        1.0  0.2357611749709429  0.5562754693023446  0.41885134129343937  1.0000
  C   C10       1.0  0.30041665161971537  0.2001790624316544  0.522626942619993  1.0000
  C   C11       1.0  0.3537641402706145  0.08139194989426102  0.5572202669708584  1.0000
  C   C12       1.0  0.441715795890147  0.09687275190013445  0.5526459142604703  1.0000
  O   O1        1.0  0.6062713186942518  0.3760471397178219  0.47129255514655033  1.0000
  H   H1        1.0  0.7717226736810576  0.1675142006173307  0.5316516590266605  1.0000
  H   H2        1.0  0.6244010008382153  0.03354679363509283  0.5706687388239029  1.0000
  H   H3        1.0  0.44922195403426485  0.4563795617756823  0.4478307630814482  1.0000
  H   H4        1.0  0.2323606155476832  0.18669724228364837  0.5266070340933384  1.0000
  H   H5        1.0  0.32689695970647137  0.9769569381509202  0.5876889660895794  1.0000
  H   H6        1.0  0.481224608557291  0.002785040933247271  0.5800554206953636  1.0000
  C   C13       1.0  0.01872526230850522  0.13521858653527105  0.4168376525235049  1.0000
  C   C14       1.0  0.003008636725206237  0.2181896621182467  0.2866534265121059  1.0000
  C   C15       1.0  0.9799454514682443  0.1527013316162742  0.16136883246091882  1.0000
  C   C16       1.0  0.9723741385043153  0.002166883844239905  0.1661878384877149  1.0000
  C   C17       1.0  0.9890580712264083  0.9181126590009615  0.2936923780638132  1.0000
  C   C18       1.0  0.013660738094100275  0.9822121028028463  0.4194186606915289  1.0000
  C   C19       1.0  0.9631766524652882  0.24311682596473624  0.027149579691618804  1.0000
  O   O2        1.0  0.9419843094074396  0.18746967139472168  0.9129375072267685  1.0000
  H   H7        1.0  0.014298313200382213  0.21371835060048341  0.771752839977087  1.0000
  H   H8        1.0  0.9543266866920108  0.9490276168725587  0.07095974684622619  1.0000
  H   H9        1.0  0.9846451354031689  0.8017206998835237  0.29290657397062847  1.0000
  H   H10       1.0  0.014392444291498663  0.6845379002328025  0.657828213961831  1.0000
  H   H11       1.0  0.9690340148803646  0.3593583963963342  0.025654259540160977  1.0000
  C   C20       1.0  0.018364434877390142  0.5565172882642633  0.994808803128063  1.0000
  C   C21       1.0  0.061601455413821976  0.6659638166420747  0.06022999437299781  1.0000
  C   C22       1.0  0.09731937806559765  0.7816661487346006  0.9769661724066001  1.0000
  C   C23       1.0  0.091063785736825  0.7869240518803088  0.8263224186570075  1.0000
  C   C24       1.0  0.04965309641628933  0.6781028336671537  0.7594566709835338  1.0000
  C   C25       1.0  0.01402154677189959  0.5609134064993246  0.8414474983726796  1.0000
  C   C26       1.0  0.1444398654017729  0.8967821803253261  0.04867730501871748  1.0000
  C   C27       1.0  0.2377614456481062  0.8545932483132338  0.0667057138810645  1.0000
  H   H12       1.0  0.9817042496180839  0.3268722249561711  0.2918084371104779  1.0000
  H   H13       1.0  0.06599868148394994  0.6632412982265525  0.17696142728627517  1.0000
  H   H14       1.0  0.11910384064215929  0.8747501735720654  0.7602996794188286  1.0000
  H   H15       1.0  0.04743891253391673  0.6837473083894381  0.6424922326720117  1.0000
  H   H16       1.0  0.914966216738182  0.3958174454535468  0.5727742675378171  1.0000
  H   H17       1.0  0.13917321600315413  0.0015304432354068566  0.9831406113875842  1.0000
  H   H18       1.0  0.11615853834051965  0.913429284166256  0.15650994483821123  1.0000
  H   H19       1.0  0.24440720302482444  0.7519326159515667  0.13516131591870773  1.0000
  H   H20       1.0  0.2676606634036933  0.8409882402755913  0.9595895165358694  1.0000
  H   H21       1.0  0.2713203578349166  0.9407850534842983  0.11964932347411984  1.0000
  Zn  Zn1       1.0  0.9233443027867095  0.5597511340137591  0.41782179073905557  1.0000
  Zn  Zn2       1.0  0.10903357700117694  0.5576789697595426  0.4184337912744738  1.0000
  C   C28       1.0  0.014874910571730515  0.5543372164159899  0.6813971201899998  1.0000
  C   C29       1.0  0.017504985330996748  0.5630946851172509  0.15485861553913205  1.0000
  C   C30       1.0  0.01464313381345427  0.8220825367021091  0.4131863103866227  1.0000
  C   C31       1.0  0.017736708692733583  0.29534763325345853  0.42306949670867144  1.0000
  O   O3        1.0  0.08768469566938036  0.5645094523621266  0.2088050264989929  1.0000
  O   O4        1.0  0.08562907143879211  0.5513486343324477  0.6279147851916027  1.0000
  O   O5        1.0  0.08544095114260215  0.7675563849490208  0.4113326600779208  1.0000
  O   O6        1.0  0.08787275309514508  0.3483017122080121  0.42538704334943755  1.0000
  O   O7        1.0  0.9445050633261346  0.7691283922739482  0.410868538447668  1.0000
  O   O8        1.0  0.9446931736522579  0.5529223739437061  0.6274505919787645  1.0000
  O   O9        1.0  0.9467488071300229  0.5660831327176141  0.2083390999791006  1.0000
  O   O10       1.0  0.9469368640596065  0.3498753828097001  0.42492122487635986  1.0000
