data_image0
_chemical_formula_structural       NC9NC3SH6C8H4C6OCH7Zn2C4O8
_chemical_formula_sum              "N2 C31 S1 H17 O9 Zn2"
_cell_length_a       16.77567553997237
_cell_length_b       9.27514070457351
_cell_length_c       9.273891588657152
_cell_angle_alpha    86.21671130185581
_cell_angle_beta     90.06962488754225
_cell_angle_gamma    91.48491386358626

_space_group_name_H-M_alt    "P 1"
_space_group_IT_number       1

loop_
  _space_group_symop_operation_xyz
  'x, y, z'

loop_
  _atom_site_type_symbol
  _atom_site_label
  _atom_site_symmetry_multiplicity
  _atom_site_fract_x
  _atom_site_fract_y
  _atom_site_fract_z
  _atom_site_occupancy
  N   N1        1.0  0.7646340132404313  0.5848187359301595  0.4218548193554934  1.0000
  C   C1        1.0  0.7100595585370467  0.6400147742386348  0.46816809456177927  1.0000
  C   C2        1.0  0.6423318508013016  0.7085094041202767  0.5256393271228814  1.0000
  C   C3        1.0  0.644708772633228  0.8072862205636233  0.6313930738029709  1.0000
  C   C4        1.0  0.5692426141436361  0.8558797130671162  0.6664930471326647  1.0000
  C   C5        1.0  0.5071316228294153  0.7951539347098175  0.5879629310870254  1.0000
  C   C6        1.0  0.4207704346748865  0.8242081950052902  0.6000815798741094  1.0000
  C   C7        1.0  0.3636425220832731  0.735240065707597  0.5351602011909151  1.0000
  C   C8        1.0  0.28212178043867925  0.7620510789324444  0.5461003295793125  1.0000
  C   C9        1.0  0.2243140916404984  0.6701054380318174  0.47962259272769564  1.0000
  N   N2        1.0  0.1778537787177611  0.5961943215095036  0.4261843133407018  1.0000
  C   C10       1.0  0.2569016588111364  0.8781768061908732  0.6217839135212553  1.0000
  C   C11       1.0  0.3129404761484897  0.9673166759812964  0.6861934210760069  1.0000
  C   C12       1.0  0.3943048873861947  0.9409120101848635  0.6755813091880791  1.0000
  S   S1        1.0  0.5474054529290494  0.6807709261565971  0.47544718474406317  1.0000
  H   H1        1.0  0.6991611739897475  0.8431268611595905  0.6822831708645885  1.0000
  H   H2        1.0  0.5611634939080181  0.9320206981069289  0.7482479032849785  1.0000
  H   H3        1.0  0.3820981263081906  0.6444309986618959  0.4767134507601006  1.0000
  H   H4        1.0  0.1940142068065065  0.8998674857554807  0.6308168371569112  1.0000
  H   H5        1.0  0.2933013932205674  0.05744344201167496  0.7442860426143834  1.0000
  H   H6        1.0  0.43600663898209424  0.013145486807316862  0.7254453870229487  1.0000
  C   C13       1.0  0.9688286540195429  0.16699017063152244  0.42298624604479973  1.0000
  C   C14       1.0  0.9806132215297003  0.24956430803822305  0.2916250461173333  1.0000
  C   C15       1.0  0.9993355050261823  0.1836197916036162  0.16550265575429224  1.0000
  C   C16       1.0  0.006719292489493656  0.0339179906373126  0.16832022015621373  1.0000
  C   C17       1.0  0.9939207197633573  0.9497136804589423  0.2973084693201691  1.0000
  C   C18       1.0  0.9736666463879745  0.014012138306536142  0.4250654751535392  1.0000
  C   C19       1.0  0.026541624903975155  0.9662163309961763  0.038180391792168825  1.0000
  C   C20       1.0  0.043138524982354376  0.9095178798419805  0.9292254603178277  1.0000
  H   H7        1.0  0.9807951688621103  0.24703615651162905  0.7772827351884617  1.0000
  H   H8        1.0  0.008833324132770711  0.24971870342601976  0.06595628090339578  1.0000
  H   H9        1.0  0.9786628497115711  0.7177870263880665  0.6637439893651544  1.0000
  H   H10       1.0  0.05770704266784499  0.8597468501932042  0.8335859105480288  1.0000
  C   C21       1.0  0.9725320612088659  0.5867175097138926  0.0007548206400092061  1.0000
  C   C22       1.0  0.03817707296520645  0.6494308578902439  0.07016220607386425  1.0000
  C   C23       1.0  0.09936085404095474  0.7227890107518093  0.9911651937314404  1.0000
  C   C24       1.0  0.09511900968208353  0.7338011814654828  0.8397067932035585  1.0000
  C   C25       1.0  0.03114414948669308  0.670260689338217  0.7689726176730973  1.0000
  C   C26       1.0  0.9699632408430345  0.5942847447475064  0.8472968410606669  1.0000
  O   O1        1.0  0.16281821422409193  0.7836667198006708  0.06717831308629463  1.0000
  C   C27       1.0  0.22891093231361648  0.8613751306291986  0.0009762052991464342  1.0000
  H   H11       1.0  0.7823717300914312  0.4929166211736351  0.10956750480485011  1.0000
  H   H12       1.0  0.14136470330409656  0.79013778223028  0.7754010901644556  1.0000
  H   H13       1.0  0.030543243848714097  0.6776759441723272  0.6519029464254191  1.0000
  H   H14       1.0  0.8431156466606246  0.5254486893443122  0.5703686236169863  1.0000
  H   H15       1.0  0.20806528509160094  0.9583817184297418  0.936595943943888  1.0000
  H   H16       1.0  0.2617479810635419  0.7907135346835881  0.9307361733868166  1.0000
  H   H17       1.0  0.2699230973601572  0.8969713716330425  0.08633201538347324  1.0000
  Zn  Zn1       1.0  0.8838802671148136  0.5880977081396428  0.4231125407988465  1.0000
  Zn  Zn2       1.0  0.05860741675919879  0.5929036899070694  0.42493839993906524  1.0000
  C   C28       1.0  0.9704142208049411  0.5871089132800258  0.6872681691528446  1.0000
  C   C29       1.0  0.9720753810486487  0.5938943582267959  0.1607829374618217  1.0000
  C   C30       1.0  0.9727655041019597  0.8538554983827068  0.41892860152116085  1.0000
  C   C31       1.0  0.9697240279992205  0.32714603942912124  0.4291225770631675  1.0000
  O   O2        1.0  0.03823012176888963  0.5981205272830734  0.21518272392550197  1.0000
  O   O3        1.0  0.036873338798398374  0.5865292814752263  0.6342537499367844  1.0000
  O   O4        1.0  0.03877113138473744  0.8019305112277557  0.4175676448674904  1.0000
  O   O5        1.0  0.036332269946883766  0.38271930524145925  0.4318687203235745  1.0000
  O   O6        1.0  0.9061553543013595  0.7982820911667099  0.4161822197836833  1.0000
  O   O7        1.0  0.9042575718416613  0.5828825934706305  0.6328682522526612  1.0000
  O   O8        1.0  0.9056143598367177  0.5944737735314372  0.21379549316226412  1.0000
  O   O9        1.0  0.9037165076246095  0.3790725421403647  0.43048159760090443  1.0000
