data_image0
_chemical_formula_structural       NC9NC3OH6C6SCNH4C8H6Zn2C4O8
_chemical_formula_sum              "N3 C31 O9 H16 S1 Zn2"
_cell_length_a       15.78231758774541
_cell_length_b       10.302215558581764
_cell_length_c       9.275144076552241
_cell_angle_alpha    85.96516146856106
_cell_angle_beta     90.54614249944106
_cell_angle_gamma    89.65080806534476

_space_group_name_H-M_alt    "P 1"
_space_group_IT_number       1

loop_
  _space_group_symop_operation_xyz
  'x, y, z'

loop_
  _atom_site_type_symbol
  _atom_site_label
  _atom_site_symmetry_multiplicity
  _atom_site_fract_x
  _atom_site_fract_y
  _atom_site_fract_z
  _atom_site_occupancy
  N   N1        1.0  0.7906845045671714  0.40302319020414984  0.41288193444506477  1.0000
  C   C1        1.0  0.7422613333670117  0.32114709311838086  0.43959863463291793  1.0000
  C   C2        1.0  0.6821421372645454  0.21951895727316836  0.4727609425258643  1.0000
  C   C3        1.0  0.7019740567896045  0.09185709248989381  0.5143300062568745  1.0000
  C   C4        1.0  0.6253259322791392  0.029987670833348842  0.5345587481490888  1.0000
  C   C5        1.0  0.563420170529207  0.12447234696182824  0.5038387015360748  1.0000
  C   C6        1.0  0.47035280052029016  0.10700420889983236  0.5096202224959976  1.0000
  C   C7        1.0  0.41646500772910394  0.21411329108998925  0.47461202578984185  1.0000
  C   C8        1.0  0.3282779202752254  0.1997898861779439  0.4793606822243486  1.0000
  C   C9        1.0  0.27368943523746764  0.31001530565982494  0.44332475093644225  1.0000
  N   N2        1.0  0.2298132002400687  0.39862231300792694  0.41435508237091717  1.0000
  C   C10       1.0  0.29329756140550756  0.07819799628178024  0.5191718954061892  1.0000
  C   C11       1.0  0.34625414953083156  0.9713103892340607  0.5541125497098702  1.0000
  C   C12       1.0  0.43425610097662876  0.9852402984435564  0.5494929347736943  1.0000
  O   O1        1.0  0.5997298122495179  0.23644829609582627  0.4673232806206107  1.0000
  H   H1        1.0  0.7644913020737487  0.04880458029578816  0.5282921463565826  1.0000
  H   H2        1.0  0.6167288026913051  0.9282573701861193  0.5677009426911022  1.0000
  H   H3        1.0  0.44294414238987806  0.3087333087955168  0.4436266021998188  1.0000
  H   H4        1.0  0.2251976887893816  0.06606680198199943  0.5231914047249973  1.0000
  H   H5        1.0  0.3190438377044581  0.8773372460039327  0.5848866110237749  1.0000
  H   H6        1.0  0.4734553830603759  0.900577843319422  0.5771775504112657  1.0000
  C   C13       1.0  0.010168545790196543  0.01955110315929165  0.4135785451563885  1.0000
  C   C14       1.0  0.0953032337260118  0.014912892583071269  0.4592201878912694  1.0000
  C   C15       1.0  0.1376720646259862  0.8955668699102087  0.4823892580782172  1.0000
  C   C16       1.0  0.09552404988338359  0.7797362421982009  0.4593429786928434  1.0000
  C   C17       1.0  0.010337272124605112  0.7820843947492732  0.4136709061890967  1.0000
  C   C18       1.0  0.9681180765748686  0.9025072574095475  0.3910952748360039  1.0000
  S   S1        1.0  0.2464373880209142  0.8911605200294673  0.5400593461184704  1.0000
  C   C19       1.0  0.21935366948842405  0.8797662894628098  0.724677325343803  1.0000
  N   N3        1.0  0.20157210943446957  0.8722970487135774  0.8457101157652787  1.0000
  H   H7        1.0  0.12902950458436568  0.10366122886297992  0.4772191013045184  1.0000
  H   H8        1.0  0.12940168134446065  0.6882018377634621  0.47742613284231306  1.0000
  H   H9        1.0  0.902458827155275  0.9052348972015437  0.3559148354927917  1.0000
  H   H10       1.0  0.8497959015253314  0.5793019351784678  0.3274361165230204  1.0000
  C   C20       1.0  0.008256459621099001  0.39818091389543575  0.9903322266233827  1.0000
  C   C21       1.0  0.9530284088915081  0.4834088792413404  0.056130878562304476  1.0000
  C   C22       1.0  0.9046008888921832  0.5750016363612845  0.9730442282185364  1.0000
  C   C23       1.0  0.910525530482664  0.583239147079079  0.8226346234430788  1.0000
  C   C24       1.0  0.9639944546866496  0.4979335977245921  0.7550742260324864  1.0000
  C   C25       1.0  0.012249386959420903  0.40345464798515396  0.8369173069313233  1.0000
  C   C26       1.0  0.8608681143743823  0.6784133270857617  0.7371743625724547  1.0000
  C   C27       1.0  0.8192950445898027  0.7580964650818827  0.6656079425972603  1.0000
  H   H11       1.0  0.18436954065150357  0.2259778873087572  0.10950653542748556  1.0000
  H   H12       1.0  0.9487895105657493  0.4812687775181763  0.17278651924800892  1.0000
  H   H13       1.0  0.8631009056626613  0.6403358406267612  0.026351217779473805  1.0000
  H   H14       1.0  0.9664248953926068  0.5033043219763556  0.6379984180783859  1.0000
  H   H15       1.0  0.12898858748682163  0.28340657736270075  0.5674804520080068  1.0000
  H   H16       1.0  0.7828025190928674  0.8280412635641975  0.602786006386984  1.0000
  Zn  Zn1       1.0  0.9174075952520739  0.40174977582853416  0.4133153699122356  1.0000
  Zn  Zn2       1.0  0.10309013429373576  0.39988520401944466  0.41393342898294033  1.0000
  C   C28       1.0  0.01149160135505878  0.39728543091720026  0.6768939295650154  1.0000
  C   C29       1.0  0.009008156868135943  0.4043511676527062  0.1503550177565962  1.0000
  C   C30       1.0  0.010273948503973784  0.6379136563807919  0.40790938931056253  1.0000
  C   C31       1.0  0.010225746375994263  0.1637213833994506  0.4193396344611118  1.0000
  O   O2        1.0  0.07972598795115556  0.4057087015989318  0.20429467779708207  1.0000
  O   O3        1.0  0.08170251882932167  0.39451174805366174  0.6234229469969421  1.0000
  O   O4        1.0  0.08071830591258305  0.5888221021502528  0.40621602463291273  1.0000
  O   O5        1.0  0.08071013699932145  0.2113983567531807  0.4215014918723414  1.0000
  O   O6        1.0  0.9397875291821153  0.590236623732451  0.4057473068043395  1.0000
  O   O7        1.0  0.940771742077708  0.39592782906317736  0.6229541524998118  1.0000
  O   O8        1.0  0.9387952030719637  0.40712472656766785  0.203824150250346  1.0000
  O   O9        1.0  0.939779352624329  0.21281437310873016  0.42103107239588067  1.0000
