data_image0
_chemical_formula_structural       NC7OC8NH10C12H10C12H10Zn2C4O8
_chemical_formula_sum              "N2 C43 O9 H30 Zn2"
_cell_length_a       17.484556032080143
_cell_length_b       14.994056859933256
_cell_length_c       13.024585202197207
_cell_angle_alpha    85.82059027263038
_cell_angle_beta     94.64658029263958
_cell_angle_gamma    90.03511975912423

_space_group_name_H-M_alt    "P 1"
_space_group_IT_number       1

loop_
  _space_group_symop_operation_xyz
  'x, y, z'

loop_
  _atom_site_type_symbol
  _atom_site_label
  _atom_site_symmetry_multiplicity
  _atom_site_fract_x
  _atom_site_fract_y
  _atom_site_fract_z
  _atom_site_occupancy
  N   N1        1.0  0.6615991792704677  0.9723670861697401  0.8752488706596189  1.0000
  C   C1        1.0  0.6157707581344442  0.917840690602  0.8880450019066786  1.0000
  C   C2        1.0  0.5587648416312228  0.8500179585000041  0.9039620120461038  1.0000
  C   C3        1.0  0.5510739694368288  0.7796947582198417  0.8389188575451743  1.0000
  C   C4        1.0  0.4956716110238044  0.713865349729285  0.8544070727145625  1.0000
  C   C5        1.0  0.4473376452034493  0.7175309775674001  0.934656926105934  1.0000
  C   C6        1.0  0.4555037134292109  0.7882691789083314  0.00016362563295924164  1.0000
  C   C7        1.0  0.5109104314193632  0.85411572507325  0.9846249861330851  1.0000
  O   O1        1.0  0.39251796493396834  0.6498411393672022  0.9464331483538877  1.0000
  C   C8        1.0  0.3352327175381536  0.6472348567032812  0.018762690303428257  1.0000
  C   C9        1.0  0.2753323652620254  0.7186078659997979  0.9889744119170386  1.0000
  C   C10       1.0  0.2541876286749539  0.7769894262729864  0.061500098214566035  1.0000
  C   C11       1.0  0.19814298470618688  0.8427247263566418  0.033556089081304585  1.0000
  C   C12       1.0  0.16235120502961062  0.850306577254989  0.9331406295893494  1.0000
  C   C13       1.0  0.18266286712812652  0.7917018129039052  0.8608201096495312  1.0000
  C   C14       1.0  0.23870816243969553  0.7259623181970124  0.8886839701210208  1.0000
  C   C15       1.0  0.10467264590525481  0.918001769827229  0.9044232910113571  1.0000
  N   N2        1.0  0.058302883403663616  0.9724269160934482  0.8813351723954448  1.0000
  H   H1        1.0  0.5878254041580291  0.7757535539382804  0.776286615011643  1.0000
  H   H2        1.0  0.49009176741039606  0.6597919892978429  0.803612567026627  1.0000
  H   H3        1.0  0.4197004426660019  0.7929857295074816  0.0633718071826802  1.0000
  H   H4        1.0  0.5164745343033336  0.908144064710979  0.03558013387178983  1.0000
  H   H5        1.0  0.30668629669798925  0.5811024847479983  0.018272345442167715  1.0000
  H   H6        1.0  0.36256615114295904  0.6529380559439913  0.09807449838768367  1.0000
  H   H7        1.0  0.28118694506010294  0.7718911170828132  0.13953477243125711  1.0000
  H   H8        1.0  0.1826880681734712  0.8875254017172064  0.09022588447806001  1.0000
  H   H9        1.0  0.1551553995229452  0.7967589238784482  0.7830167062482638  1.0000
  H   H10       1.0  0.2537169377239116  0.6809130992290172  0.8320690335393779  1.0000
  C   C16       1.0  0.8600228635246278  0.7104327550808021  0.8782195140134135  1.0000
  C   C17       1.0  0.8913845974655195  0.6678656393946752  0.7985061358376063  1.0000
  C   C18       1.0  0.8913800365423081  0.5746411373194391  0.7985635129912763  1.0000
  C   C19       1.0  0.8599661101022735  0.5219327413313999  0.8782616591421532  1.0000
  C   C20       1.0  0.8285889055060268  0.5646028774368393  0.9579187869643939  1.0000
  C   C21       1.0  0.828650854816202  0.6578280267822635  0.9579081395191885  1.0000
  C   C22       1.0  0.859927260288469  0.4228560861341795  0.8783056528222557  1.0000
  C   C23       1.0  0.795750773740476  0.37335390871319657  0.9069884236305528  1.0000
  C   C24       1.0  0.7957073892179305  0.2801332026856052  0.9069853851875627  1.0000
  C   C25       1.0  0.8598870019569356  0.23435445246960138  0.87837359995552  1.0000
  C   C26       1.0  0.9240498139679733  0.2837501932186825  0.8497442391718072  1.0000
  C   C27       1.0  0.9240675229780061  0.37697967045046593  0.8496646795977834  1.0000
  H   H11       1.0  0.8283147491357852  0.9181471548373669  0.9587211715456205  1.0000
  H   H12       1.0  0.915799368950985  0.7065824992658994  0.7358318215196535  1.0000
  H   H13       1.0  0.9150681877439393  0.5438231843005636  0.7354101593863764  1.0000
  H   H14       1.0  0.8048749810782887  0.5258209759119328  0.02110056392577541  1.0000
  H   H15       1.0  0.8042590125453029  0.6886120149546285  0.020562629244384234  1.0000
  H   H16       1.0  0.7450863932708689  0.4068118403658381  0.928136297940179  1.0000
  H   H17       1.0  0.745284679033339  0.24396154270933504  0.9291621813735422  1.0000
  H   H18       1.0  0.9744540888734241  0.25042050432313423  0.8275945139474646  1.0000
  H   H19       1.0  0.9747570481310223  0.4131216121730296  0.8284872906198242  1.0000
  H   H20       1.0  0.9247069290774381  0.023399584784527982  0.8494312857335187  1.0000
  C   C28       1.0  0.8442652816498796  0.9713205708501733  0.5758366293409396  1.0000
  C   C29       1.0  0.8273243957122824  0.04260316998155344  0.5011681729040753  1.0000
  C   C30       1.0  0.8534782892028598  0.041241331027053636  0.40268892672208856  1.0000
  C   C31       1.0  0.896510469951573  0.968357791085648  0.3768801723469455  1.0000
  C   C32       1.0  0.9141783559032254  0.8975828797523805  0.45148674792793364  1.0000
  C   C33       1.0  0.8880630183367569  0.8988698606873637  0.5500098270203315  1.0000
  C   C34       1.0  0.9252975459069175  0.9675388135021952  0.27312151490489245  1.0000
  C   C35       1.0  0.005132245637560648  0.9646424588786404  0.2666632818852732  1.0000
  C   C36       1.0  0.03590227124353906  0.9693776038428469  0.1709124452775268  1.0000
  C   C37       1.0  0.9874842044313991  0.9772542656301697  0.08032336524751038  1.0000
  C   C38       1.0  0.9080430272595357  0.9793166034954239  0.08504476221523793  1.0000
  C   C39       1.0  0.8756445411274976  0.9734666152664243  0.18075643136841182  1.0000
  H   H21       1.0  0.8152450268089598  0.9016604865401061  0.8253130549392513  1.0000
  H   H22       1.0  0.7940001755472238  0.09954420796655672  0.518856661554423  1.0000
  H   H23       1.0  0.8402859527514298  0.09708588878998697  0.34650576052208115  1.0000
  H   H24       1.0  0.9478233865956569  0.8411028303142347  0.4331219572756475  1.0000
  H   H25       1.0  0.9022448075518238  0.8431201782343389  0.6058900554612245  1.0000
  H   H26       1.0  0.04380487075262218  0.9602953296988505  0.33620216009040305  1.0000
  H   H27       1.0  0.09747692719086265  0.9676172731541528  0.16697541580705288  1.0000
  H   H28       1.0  0.011531897143871823  0.9811917211863035  0.006126537830236199  1.0000
  H   H29       1.0  0.8717952060178631  0.9838557956573729  0.013357164131116758  1.0000
  H   H30       1.0  0.6871878369410123  0.004528672997297312  0.09333981655569824  1.0000
  Zn  Zn1       1.0  0.7760796114778136  0.9723819891466945  0.8770112015622454  1.0000
  Zn  Zn2       1.0  0.943822887868094  0.972404759021786  0.8795813053004964  1.0000
  C   C40       1.0  0.8697124265279597  0.9695071352958571  0.06641259057729143  1.0000
  C   C41       1.0  0.8501919095214151  0.9752807390561055  0.6901800457742738  1.0000
  C   C42       1.0  0.8596958242272996  0.13530751542951844  0.8742400194263356  1.0000
  C   C43       1.0  0.8602084577094753  0.8094792873296394  0.8823526706455369  1.0000
  O   O2        1.0  0.9158386401735036  0.9766145569046933  0.7295300806993321  1.0000
  O   O3        1.0  0.9313789461352624  0.9681899252273407  0.029012908229921423  1.0000
  O   O4        1.0  0.9232896105191354  0.10207583270020915  0.8738321844972089  1.0000
  O   O5        1.0  0.9239279145425312  0.8427286555315828  0.8847107263300327  1.0000
  O   O6        1.0  0.7959745275605471  0.10205809263007937  0.8718817796502413  1.0000
  O   O7        1.0  0.8040638600464445  0.9681732567431971  0.02706244878017861  1.0000
  O   O8        1.0  0.7885234899071111  0.976597852940846  0.7275783829097757  1.0000
  O   O9        1.0  0.7966127682804088  0.8427119454611597  0.8827591057600213  1.0000
