data_image0
_chemical_formula_structural       NC9NC3SH6C7NC2NH8C8H6Zn2C4O8
_chemical_formula_sum              "N4 C33 S1 H20 Zn2 O8"
_cell_length_a       16.77567553997237
_cell_length_b       9.273995741505848
_cell_length_c       9.275144076552241
_cell_angle_alpha    86.09759500334717
_cell_angle_beta     90.85075607413872
_cell_angle_gamma    91.47570659476311

_space_group_name_H-M_alt    "P 1"
_space_group_IT_number       1

loop_
  _space_group_symop_operation_xyz
  'x, y, z'

loop_
  _atom_site_type_symbol
  _atom_site_label
  _atom_site_symmetry_multiplicity
  _atom_site_fract_x
  _atom_site_fract_y
  _atom_site_fract_z
  _atom_site_occupancy
  N   N1        1.0  0.7526392114530887  0.5879078662054691  0.42186746314844736  1.0000
  C   C1        1.0  0.6984078021907163  0.6430246578029557  0.46819106577997877  1.0000
  C   C2        1.0  0.6311057875616473  0.7114209486406082  0.5256751139456963  1.0000
  C   C3        1.0  0.6342684363236959  0.8100137517454715  0.6314495751852645  1.0000
  C   C4        1.0  0.5590616698305136  0.8585479431082792  0.6665580867223302  1.0000
  C   C5        1.0  0.49636610481330645  0.7979602245557493  0.5880139164310879  1.0000
  C   C6        1.0  0.41009339279536744  0.8269953876552193  0.6001368045404132  1.0000
  C   C7        1.0  0.352485625031451  0.7381370447354678  0.5351997293085717  1.0000
  C   C8        1.0  0.2710447040478958  0.7649308832510853  0.5461437459975491  1.0000
  C   C9        1.0  0.21274573095411672  0.673097565880485  0.47964984745144296  1.0000
  N   N2        1.0  0.1658904980729244  0.5992767408368698  0.4261985764071393  1.0000
  C   C10       1.0  0.24638289114119097  0.8809300165322905  0.6218469338767607  1.0000
  C   C11       1.0  0.3028977033004338  0.9699610635062318  0.6862721060747612  1.0000
  C   C12       1.0  0.3841847221580609  0.943573012879091  0.6756561806527127  1.0000
  S   S1        1.0  0.5358047864432126  0.6837719531841218  0.4754751537617478  1.0000
  H   H1        1.0  0.6890999700912183  0.8457645311235942  0.6823484104646718  1.0000
  H   H2        1.0  0.5515899894859165  0.9345466485875544  0.7483289334753105  1.0000
  H   H3        1.0  0.3705101742314941  0.6474256132096171  0.4767377207587488  1.0000
  H   H4        1.0  0.18356138390249  0.9026064654050447  0.6308830210102429  1.0000
  H   H5        1.0  0.2836870752738498  0.059990770773181705  0.7443798793886249  1.0000
  H   H6        1.0  0.42625469184709947  0.01572260349301403  0.7255327247437983  1.0000
  C   C13       1.0  0.9568791688356598  0.17003034316637788  0.4229550484435878  1.0000
  C   C14       1.0  0.9702976190931675  0.25272508292555007  0.2927395914759911  1.0000
  C   C15       1.0  0.9908753967064802  0.18730389376098586  0.16800570890431588  1.0000
  C   C16       1.0  0.9989004443238875  0.03709143200651699  0.1699272512125711  1.0000
  C   C17       1.0  0.9838022301057023  0.9530645421315748  0.29893101861670024  1.0000
  C   C18       1.0  0.9616581652944974  0.01714343712935151  0.4251235151399346  1.0000
  C   C19       1.0  0.021674486731389386  0.9697848696989559  0.03621765751884886  1.0000
  N   N3        1.0  0.02399427728693015  0.04321823534297797  0.9052625673472008  1.0000
  C   C20       1.0  0.04750759040730412  0.9453443115491309  0.8148529350440366  1.0000
  C   C21       1.0  0.05922727544741879  0.8152868518594173  0.8914972538579127  1.0000
  N   N4        1.0  0.04301505086130142  0.830813294127317  0.030696453719328387  1.0000
  H   H7        1.0  0.8931398231605905  0.43432776319904365  0.629739920579554  1.0000
  H   H8        1.0  0.9668072205204018  0.3694404598477683  0.288053975005385  1.0000
  H   H9        1.0  0.0016922614812289192  0.2551173657759271  0.07020003409000752  1.0000
  H   H10       1.0  0.9865112858703943  0.8365909230085756  0.30095697600633997  1.0000
  H   H11       1.0  0.9637720518943409  0.720845378135668  0.6648508778849056  1.0000
  H   H12       1.0  0.05581659467004241  0.9677916930939998  0.7000170390247087  1.0000
  H   H13       1.0  0.07862072215495153  0.7164103814056973  0.848969905306338  1.0000
  H   H14       1.0  0.047725071286006227  0.7509907385050942  0.11500279953044834  1.0000
  C   C22       1.0  0.9573737548019124  0.5905836952839332  0.0007265546482813119  1.0000
  C   C23       1.0  0.9059132754590605  0.6832196982022366  0.0663961758928706  1.0000
  C   C24       1.0  0.860891555903062  0.7831781964762947  0.9832422605739866  1.0000
  C   C25       1.0  0.8665173353491075  0.792548688455843  0.8328937930185507  1.0000
  C   C26       1.0  0.9163217747232975  0.6997613684252508  0.765450718131274  1.0000
  C   C27       1.0  0.9611635790961581  0.5965901763778274  0.8473520821688232  1.0000
  C   C28       1.0  0.8203598212468624  0.8964402955050564  0.7473679747031481  1.0000
  C   C29       1.0  0.7817168824999837  0.9834220354411969  0.6757466798321556  1.0000
  H   H15       1.0  0.12207599830346604  0.4058016398444444  0.12058328228296222  1.0000
  H   H16       1.0  0.9019109466708312  0.6806852981946191  0.18301828897460568  1.0000
  H   H17       1.0  0.8222304613115393  0.8542222493677054  0.03645580681532889  1.0000
  H   H18       1.0  0.9186416808444547  0.7058177490301181  0.6484054094384764  1.0000
  H   H19       1.0  0.07030318232273558  0.46754945221048766  0.578351521900724  1.0000
  H   H20       1.0  0.7477964010522097  0.059773440803009066  0.6128765736135322  1.0000
  Zn  Zn1       1.0  0.8718946245040952  0.5911848860025408  0.4231256522944673  1.0000
  Zn  Zn2       1.0  0.04663506666807883  0.5959880385555465  0.42495219522912153  1.0000
  C   C30       1.0  0.9604130238046419  0.5897086677899513  0.6873069645980492  1.0000
  C   C31       1.0  0.9581185864281084  0.5974661301323949  0.16077104901555894  1.0000
  C   C32       1.0  0.9607250139806859  0.8569802064918683  0.41896925991913103  1.0000
  C   C33       1.0  0.957806527193062  0.33019285740823534  0.4291088254887958  1.0000
  O   O1        1.0  0.024681610360119954  0.6015924169239453  0.2151765907661729  1.0000
  O   O2        1.0  0.026473944260344547  0.5892267715895048  0.634287308923605  1.0000
  O   O3        1.0  0.026724993050671664  0.8050519052634524  0.41760270835645485  1.0000
  O   O4        1.0  0.02443050151709958  0.3857672911622534  0.43186108265230416  1.0000
  O   O5        1.0  0.8940991300247122  0.8014056317582702  0.41621676424039666  1.0000
  O   O6        1.0  0.8938480906630253  0.585582230469001  0.6329012923823402  1.0000
  O   O7        1.0  0.8920557487741286  0.5979478132461978  0.21378884096968753  1.0000
  O   O8        1.0  0.8918046403534393  0.38212267793468624  0.4304734409059503  1.0000
