data_image0
_chemical_formula_structural       NC5NC3BrH3C6BrH5C6H6Zn2C4O8
_chemical_formula_sum              "N2 C24 Br2 H14 Zn2 O8"
_cell_length_a       13.839083392302014
_cell_length_b       9.276564384272257
_cell_length_c       10.681121600428286
_cell_angle_alpha    85.5120417802204
_cell_angle_beta     90.00087308194136
_cell_angle_gamma    90.61189963838827

_space_group_name_H-M_alt    "P 1"
_space_group_IT_number       1

loop_
  _space_group_symop_operation_xyz
  'x, y, z'

loop_
  _atom_site_type_symbol
  _atom_site_label
  _atom_site_symmetry_multiplicity
  _atom_site_fract_x
  _atom_site_fract_y
  _atom_site_fract_z
  _atom_site_occupancy
  N   N1        1.0  0.9207242408650527  0.5788538417098903  0.6174845284609768  1.0000
  C   C1        1.0  0.8482852700850405  0.515206590098058  0.6196722392833018  1.0000
  C   C2        1.0  0.7580329075140712  0.43600740310642944  0.6223943709331061  1.0000
  C   C3        1.0  0.6709989040568446  0.5122142169387662  0.6197752579676998  1.0000
  C   C4        1.0  0.5824398361592424  0.43748025761166437  0.6223436990367008  1.0000
  C   C5        1.0  0.49321953439479227  0.5160386777492056  0.6196436251755324  1.0000
  N   N2        1.0  0.42149801705510603  0.5791934888441446  0.6174728062732961  1.0000
  C   C6        1.0  0.5808468028579171  0.2862279537268524  0.6275420016076445  1.0000
  C   C7        1.0  0.6674349289430082  0.2098998613653715  0.6301652033871064  1.0000
  C   C8        1.0  0.756185128054851  0.28391963239233764  0.6276213253677594  1.0000
  Br  Br1       1.0  0.8728331426331394  0.17381941013846716  0.6314053730683282  1.0000
  H   H1        1.0  0.6721782795785851  0.6294219514180763  0.6157468401768624  1.0000
  H   H2        1.0  0.5127487609338429  0.22737007937281392  0.6295646211434966  1.0000
  H   H3        1.0  0.6654940651928779  0.092941355622151  0.6341847277391046  1.0000
  C   C9        1.0  0.1682044725404208  0.15554071559850935  0.6177989820577416  1.0000
  C   C10       1.0  0.15582148264476905  0.23903160315085636  0.5033424300604628  1.0000
  C   C11       1.0  0.1524312647888877  0.1740404319614688  0.38995475198114593  1.0000
  C   C12       1.0  0.16140256786594434  0.024639355667963155  0.38887062678965223  1.0000
  C   C13       1.0  0.17208327066278703  0.9394539845297207  0.5015964378558804  1.0000
  C   C14       1.0  0.17402695728722462  0.002495466885039437  0.6171691717849404  1.0000
  Br  Br2       1.0  0.15747509850197394  0.9362789138062921  0.23328290437186272  1.0000
  H   H4        1.0  0.13986918246194602  0.41807390453597737  0.8213941591733103  1.0000
  H   H5        1.0  0.15105293188497204  0.35568476169603724  0.501198636389288  1.0000
  H   H6        1.0  0.14374803584404128  0.24025477360132075  0.30272482124940897  1.0000
  H   H7        1.0  0.17655414480500456  0.8232170341742479  0.4988963923673979  1.0000
  H   H8        1.0  0.22733172366659815  0.7045989611890595  0.8122102804996743  1.0000
  C   C15       1.0  0.1711157339440832  0.5790180859508836  0.2497388700120993  1.0000
  C   C16       1.0  0.10140192892658195  0.4987671749337703  0.1883776306517007  1.0000
  C   C17       1.0  0.10140186923252026  0.498767267361226  0.05749549063145887  1.0000
  C   C18       1.0  0.171115658467613  0.5790181565906816  0.9852293056376538  1.0000
  C   C19       1.0  0.24077192188965713  0.6592025637919077  0.046590015402815155  1.0000
  C   C20       1.0  0.2407719093731302  0.6592025414218339  0.17748231408277615  1.0000
  H   H9        1.0  0.24161487608414345  0.6601738070062746  0.5429346736000304  1.0000
  H   H10       1.0  0.04675695743269958  0.43586271805322907  0.2414624750323682  1.0000
  H   H11       1.0  0.046756937718647196  0.435862785921385  0.012958445756831694  1.0000
  H   H12       1.0  0.2954240298391857  0.7221153098167161  0.9935495000649297  1.0000
  H   H13       1.0  0.2954239808066177  0.7221152592302036  0.22197386758806115  1.0000
  H   H14       1.0  0.24161517420993173  0.6601733047790725  0.6810056482531484  1.0000
  Zn  Zn1       1.0  0.06523671173575928  0.5789479900885673  0.6174883859007293  1.0000
  Zn  Zn2       1.0  0.2769854570667518  0.5790875204328818  0.617479234793227  1.0000
  C   C21       1.0  0.17107404787020108  0.573273115186427  0.8462101524064989  1.0000
  C   C22       1.0  0.17115044573084437  0.5847642164286679  0.3887575897475053  1.0000
  C   C23       1.0  0.17292140684505325  0.8424030092095142  0.6122979549733704  1.0000
  C   C24       1.0  0.16930300258996803  0.31563258975343667  0.6226698552372757  1.0000
  O   O1        1.0  0.2515195973879243  0.5867393299460189  0.43541007392287323  1.0000
  O   O2        1.0  0.2514172869079491  0.5714028140600396  0.7995503630701262  1.0000
  O   O3        1.0  0.2529079693849625  0.7887286063819963  0.6106646076071254  1.0000
  O   O4        1.0  0.25002884272633263  0.36941354789257264  0.624295735485185  1.0000
  O   O5        1.0  0.09219325381673497  0.7886219625828312  0.6106718852053058  1.0000
  O   O6        1.0  0.09070258324630154  0.5712979028669738  0.7995575726081988  1.0000
  O   O7        1.0  0.09080489344515685  0.5866343684994002  0.43541577787572616  1.0000
  O   O8        1.0  0.08931413870869953  0.36930857613139856  0.6243015333352613  1.0000
