data_image0
_chemical_formula_structural       NC5NC3BrH3C6NH7C6NCH7Zn2C4O8
_chemical_formula_sum              "N4 C25 Br1 H17 Zn2 O8"
_cell_length_a       13.839083392302014
_cell_length_b       9.274771166103582
_cell_length_c       9.273390368590327
_cell_angle_alpha    86.06293122453995
_cell_angle_beta     89.99157220175844
_cell_angle_gamma    90.6230172981901

_space_group_name_H-M_alt    "P 1"
_space_group_IT_number       1

loop_
  _space_group_symop_operation_xyz
  'x, y, z'

loop_
  _atom_site_type_symbol
  _atom_site_label
  _atom_site_symmetry_multiplicity
  _atom_site_fract_x
  _atom_site_fract_y
  _atom_site_fract_z
  _atom_site_occupancy
  N   N1        1.0  0.9209803961776272  0.5623579737944588  0.4073099739588648  1.0000
  C   C1        1.0  0.8485330302229444  0.49872076979271607  0.4098904849878211  1.0000
  C   C2        1.0  0.7582702211570004  0.41953408382610546  0.41310137523003637  1.0000
  C   C3        1.0  0.6712462694900264  0.49572887102182017  0.41001199583750547  1.0000
  C   C4        1.0  0.5826773440757154  0.42100670525424055  0.41304160659704303  1.0000
  C   C5        1.0  0.49346740428687014  0.4995527259253294  0.40985673363887587  1.0000
  N   N2        1.0  0.421754217169403  0.5626975667273333  0.4072961484362171  1.0000
  C   C6        1.0  0.5810643603745672  0.2697782712400498  0.41917327400991233  1.0000
  C   C7        1.0  0.6676424186754516  0.19346222368432864  0.42226747864389  1.0000
  C   C8        1.0  0.7564023811008911  0.26747031407572575  0.4192668407728062  1.0000
  Br  Br1       1.0  0.8730358732962544  0.15738746822318417  0.42373031902769065  1.0000
  H   H1        1.0  0.6724411048894033  0.6129181062524669  0.4052602731450994  1.0000
  H   H2        1.0  0.5129585550192759  0.21092968269233192  0.4215590652881871  1.0000
  H   H3        1.0  0.6656861279331425  0.07652217384772397  0.4270087204577526  1.0000
  C   C9        1.0  0.1684053055744954  0.13893754591074314  0.40808874181869453  1.0000
  C   C10       1.0  0.1461739759995162  0.2208614181315005  0.2792027276538598  1.0000
  C   C11       1.0  0.13296450807201254  0.1544245799996764  0.14949873510294243  1.0000
  C   C12       1.0  0.14203705725040816  0.004676446444478174  0.1477412945480625  1.0000
  C   C13       1.0  0.16248161778249992  0.9214131174427143  0.274856832530717  1.0000
  C   C14       1.0  0.17433848808693475  0.9861070425288501  0.4065299219863294  1.0000
  N   N3        1.0  0.11132690275164348  0.23943329785101652  0.01919616586631978  1.0000
  H   H4        1.0  0.27714255618323214  0.22202392772694687  0.7235109733212788  1.0000
  H   H5        1.0  0.14130186545765877  0.3374449385184697  0.27864923080175386  1.0000
  H   H6        1.0  0.13233104272457008  0.9521220292072848  0.04794714554639312  1.0000
  H   H7        1.0  0.16674016966740468  0.8052081204761162  0.27072899676619766  1.0000
  H   H8        1.0  0.2436608957379678  0.6913685100284107  0.6211288485560773  1.0000
  H   H9        1.0  0.10466932033543874  0.35150218714194015  0.019149537268633665  1.0000
  H   H10       1.0  0.10171178108374757  0.1909213407985844  0.9217722504882996  1.0000
  C   C15       1.0  0.17138517311787677  0.558024130975761  0.9840718204084618  1.0000
  C   C16       1.0  0.2601135159397203  0.5552182269569093  0.057677137143837154  1.0000
  C   C17       1.0  0.34738779773430006  0.5658204257131003  0.9822405485074207  1.0000
  C   C18       1.0  0.34815203088222035  0.5796208089535511  0.830587148558347  1.0000
  C   C19       1.0  0.25999561924233316  0.5799944808809292  0.7561766898541489  1.0000
  C   C20       1.0  0.17135862921220069  0.5670204463597082  0.8305468033533787  1.0000
  N   N4        1.0  0.4370711182756635  0.591884971199828  0.7497739757636857  1.0000
  C   C21       1.0  0.532477475698103  0.5921196726358706  0.8167592345771175  1.0000
  H   H11       1.0  0.01838360056456811  0.48863144771847655  0.27004351165592366  1.0000
  H   H12       1.0  0.41395500675139035  0.5645382553046407  0.043362162687355266  1.0000
  H   H13       1.0  0.9453839459747835  0.4548036561016608  0.7352681243747807  1.0000
  H   H14       1.0  0.4340028345651712  0.6014426612516985  0.6368806378494551  1.0000
  H   H15       1.0  0.5393966673396731  0.6846561068072856  0.886057330074105  1.0000
  H   H16       1.0  0.5435419841795137  0.4890181513206384  0.8825025786117915  1.0000
  H   H17       1.0  0.5891812146293243  0.6030628729354623  0.7318470433650486  1.0000
  Zn  Zn1       1.0  0.06549287921083424  0.5624521940761824  0.40731432076721585  1.0000
  Zn  Zn2       1.0  0.2772416431031659  0.5625916491235645  0.4073036513652031  1.0000
  C   C22       1.0  0.1713212252197509  0.5595734700037802  0.6705554876706536  1.0000
  C   C23       1.0  0.17141562212635078  0.5654721962534262  0.14406262245662638  1.0000
  C   C24       1.0  0.17321218506680713  0.8259129003388292  0.4010812195963056  1.0000
  C   C25       1.0  0.16952457788442454  0.29913103364373983  0.4135369705635277  1.0000
  O   O1        1.0  0.25178334937781277  0.5680184644674964  0.19775295975510376  1.0000
  O   O2        1.0  0.2516659026215673  0.5571319523468938  0.6168566396565454  1.0000
  O   O3        1.0  0.25319179330723873  0.7722044258782257  0.39925425890610344  1.0000
  O   O4        1.0  0.25025738651229146  0.3529460000588127  0.41535523242525496  1.0000
  O   O5        1.0  0.09247706354225915  0.7720978430948348  0.3992627397032209  1.0000
  O   O6        1.0  0.09095118499200859  0.5570271017920405  0.6168650404171674  1.0000
  O   O7        1.0  0.09106863151486522  0.5679135452301285  0.19775962778917533  1.0000
  O   O8        1.0  0.08954266856974447  0.3528410716526973  0.4153620085356746  1.0000
