data_image0
_chemical_formula_structural       NC5NC3OH4C6NH7C6ClH5Zn2C4O8
_chemical_formula_sum              "N3 C24 O9 H16 Cl1 Zn2"
_cell_length_a       13.84702359539666
_cell_length_b       9.274771166103582
_cell_length_c       10.302974078461048
_cell_angle_alpha    85.4557754151483
_cell_angle_beta     89.98558386727187
_cell_angle_gamma    90.59789355945463

_space_group_name_H-M_alt    "P 1"
_space_group_IT_number       1

loop_
  _space_group_symop_operation_xyz
  'x, y, z'

loop_
  _atom_site_type_symbol
  _atom_site_label
  _atom_site_symmetry_multiplicity
  _atom_site_fract_x
  _atom_site_fract_y
  _atom_site_fract_z
  _atom_site_occupancy
  N   N1        1.0  0.9203982654115401  0.5787079238147439  0.5650528837326685  1.0000
  C   C1        1.0  0.8481934890246855  0.5700362841419866  0.6218621148939669  1.0000
  C   C2        1.0  0.7582714839572725  0.5592382612021334  0.6926015775771492  1.0000
  C   C3        1.0  0.6707603468927268  0.5696698363249006  0.6242621788875571  1.0000
  C   C4        1.0  0.5828267871898594  0.5593594632692028  0.6918072102190995  1.0000
  C   C5        1.0  0.4930509058937348  0.5700995801936537  0.6214471935133312  1.0000
  N   N2        1.0  0.4208827209809765  0.578733809623232  0.5648833493295888  1.0000
  C   C6        1.0  0.5823987944582952  0.5385863999368408  0.827894676233597  1.0000
  C   C7        1.0  0.6695296348655791  0.5281451009787628  0.8962953630933529  1.0000
  C   C8        1.0  0.7577781587154327  0.5383890282064172  0.8291869692795087  1.0000
  O   O1        1.0  0.8446292426942376  0.5279299044435399  0.8977060337080418  1.0000
  H   H1        1.0  0.671096499890277  0.5857631363961247  0.5188333199181576  1.0000
  H   H2        1.0  0.5147872802084306  0.5304715895756287  0.881055724337604  1.0000
  H   H3        1.0  0.6684153514759049  0.5120837214263714  0.001515750293030642  1.0000
  H   H4        1.0  0.8460561222961299  0.5128979472200941  0.9961817702172705  1.0000
  C   C9        1.0  0.1676802203387955  0.15512415855743253  0.5656767392426292  1.0000
  C   C10       1.0  0.14545769735737313  0.23843176501244678  0.4495861925499043  1.0000
  C   C11       1.0  0.13225179693924516  0.1733817006178442  0.33275599895272223  1.0000
  C   C12       1.0  0.14131904829355357  0.023646559413642576  0.33117009047976276  1.0000
  C   C13       1.0  0.16175577924941975  0.9390194325811109  0.4456663940989432  1.0000
  C   C14       1.0  0.1736099253921155  0.002306504017268943  0.5642707288096811  1.0000
  N   N3        1.0  0.11062261071372714  0.25978883577998824  0.21538926610338718  1.0000
  H   H5        1.0  0.2763645226997711  0.2347900842023813  0.8497676253082377  1.0000
  H   H6        1.0  0.14058838490078432  0.3550242213102195  0.4490891443029972  1.0000
  H   H7        1.0  0.1316155143247704  0.9721588381763439  0.24128088867256858  1.0000
  H   H8        1.0  0.16601174085962467  0.8228556374716869  0.44194679937704257  1.0000
  H   H9        1.0  0.2428990008661538  0.7052437676798303  0.757554695803696  1.0000
  H   H10       1.0  0.10396887403818988  0.3718623929316973  0.21534935325709625  1.0000
  H   H11       1.0  0.10100999137827937  0.21231832689727767  0.1276350870741898  1.0000
  C   C15       1.0  0.17064507430206777  0.5787153324372447  0.18373122703144706  1.0000
  C   C16       1.0  0.15279789956527332  0.4288935382278604  0.19321923980872668  1.0000
  C   C17       1.0  0.14394266772904296  0.354556044642949  0.08097014176389239  1.0000
  C   C18       1.0  0.15279794332725505  0.42889361969537365  0.9581113406877811  1.0000
  C   C19       1.0  0.17064507131758644  0.5787152579774575  0.9462162462292795  1.0000
  C   C20       1.0  0.17948167921363067  0.6528958679824237  0.059680093158099634  1.0000
  Cl  Cl1       1.0  0.1216473097476072  0.1673930311981584  0.09432646650242416  1.0000
  H   H12       1.0  0.177368353829714  0.6351506164231397  0.5074601952809956  1.0000
  H   H13       1.0  0.14569967454014132  0.3693059120275515  0.28751807376577654  1.0000
  H   H14       1.0  0.1456997418799773  0.36930589144793396  0.872317107703167  1.0000
  H   H15       1.0  0.1932459127250541  0.7684429325261537  0.05143432790955905  1.0000
  H   H16       1.0  0.1773681699769976  0.6351506036486276  0.6144325648830646  1.0000
  Zn  Zn1       1.0  0.06482723947415758  0.5787115322584082  0.5650114520826213  1.0000
  Zn  Zn2       1.0  0.27645364024525443  0.578718398237883  0.5649353958363934  1.0000
  C   C21       1.0  0.1706026824835827  0.572968755920775  0.8020997620581822  1.0000
  C   C22       1.0  0.17068052092869546  0.5844629947092732  0.3278472094338112  1.0000
  C   C23       1.0  0.17248410242634615  0.8421709765449424  0.5593630178996118  1.0000
  C   C24       1.0  0.16879901664233923  0.3152590410127716  0.5705840257103261  1.0000
  O   O2        1.0  0.25100348928548716  0.586388275185554  0.37618499713914577  1.0000
  O   O3        1.0  0.25089924799379526  0.571047598359967  0.7537038775057288  1.0000
  O   O4        1.0  0.25241743575908826  0.7884317960055318  0.5576922370947475  1.0000
  O   O5        1.0  0.24948522937866668  0.3690040878565506  0.572196540216565  1.0000
  O   O6        1.0  0.09179557812305195  0.7884258426389684  0.5577503077215722  1.0000
  O   O7        1.0  0.09027740248365812  0.5710433780649649  0.7537618760337321  1.0000
  O   O8        1.0  0.09038164348778047  0.5863840046236195  0.37624143486746164  1.0000
  O   O9        1.0  0.08886338350479431  0.36899980697728174  0.5722530752975663  1.0000
