data_image0
_chemical_formula_structural       NC9NC3OH6C6SCNH4C8NH11Zn2C4O8
_chemical_formula_sum              "N4 C31 O9 H21 S1 Zn2"
_cell_length_a       15.78231758774541
_cell_length_b       10.302215558581764
_cell_length_c       9.275652972338538
_cell_angle_alpha    85.94620534348942
_cell_angle_beta     90.52078220685846
_cell_angle_gamma    89.65080806534476

_space_group_name_H-M_alt    "P 1"
_space_group_IT_number       1

loop_
  _space_group_symop_operation_xyz
  'x, y, z'

loop_
  _atom_site_type_symbol
  _atom_site_label
  _atom_site_symmetry_multiplicity
  _atom_site_fract_x
  _atom_site_fract_y
  _atom_site_fract_z
  _atom_site_occupancy
  N   N1        1.0  0.7910953049881921  0.40349284920359696  0.4129387271650353  1.0000
  C   C1        1.0  0.7426652185925445  0.3216088461283803  0.4396544713344894  1.0000
  C   C2        1.0  0.6825374389509327  0.21997089691346147  0.4728155925623056  1.0000
  C   C3        1.0  0.702358598980997  0.09229673103847634  0.5143831688046105  1.0000
  C   C4        1.0  0.6257052385804829  0.03042132330510272  0.5346111868406109  1.0000
  C   C5        1.0  0.5638074282289728  0.12491509009083578  0.5038922394999465  1.0000
  C   C6        1.0  0.4707385617647537  0.10744524116472198  0.5096735535765202  1.0000
  C   C7        1.0  0.4168598302918515  0.21456468295886433  0.474666609587951  1.0000
  C   C8        1.0  0.328671513723325  0.20023987282733466  0.4794150960986692  1.0000
  C   C9        1.0  0.27409235601670023  0.31047595603978495  0.4433804543043416  1.0000
  N   N2        1.0  0.23022361936003724  0.3990915360743481  0.41441182237642393  1.0000
  C   C10       1.0  0.29368085035043795  0.07863620202151099  0.5192248846939393  1.0000
  C   C11       1.0  0.346628394639761  0.9717382553569122  0.5541642886969409  1.0000
  C   C12       1.0  0.4346315417998545  0.9856695316000116  0.549544839066991  1.0000
  O   O1        1.0  0.600126521388727  0.23690184484567833  0.4673781252359033  1.0000
  H   H1        1.0  0.7648722303858992  0.04924008717648065  0.5283448092893692  1.0000
  H   H2        1.0  0.6170995306595259  0.9286812152400973  0.567752195437222  1.0000
  H   H3        1.0  0.44334698503968323  0.309193869851837  0.4436822947664083  1.0000
  H   H4        1.0  0.22557993734786758  0.06650381827101114  0.5232442501804311  1.0000
  H   H5        1.0  0.3194101174341139  0.8777560054855333  0.5849372488056583  1.0000
  H   H6        1.0  0.47382365815850114  0.900998884061486  0.5772284640507115  1.0000
  C   C13       1.0  0.010579165904547104  0.02002055601812658  0.4136353129491539  1.0000
  C   C14       1.0  0.09570204022267487  0.01536883919512788  0.4592753224639925  1.0000
  C   C15       1.0  0.1380648741751037  0.8960159603453001  0.48244356357933915  1.0000
  C   C16       1.0  0.09592282459758872  0.7801921524740788  0.45939810887167515  1.0000
  C   C17       1.0  0.0107478683327622  0.7825538202766879  0.41372767067685645  1.0000
  C   C18       1.0  0.9685345161283102  0.9029833635038739  0.3911528471600161  1.0000
  S   S1        1.0  0.24681527057943142  0.891592544767661  0.5401115879790663  1.0000
  C   C19       1.0  0.21968376660158506  0.8801436821624147  0.724722960917555  1.0000
  N   N3        1.0  0.20187087912319934  0.8726386254644614  0.8457514203560228  1.0000
  H   H7        1.0  0.12942365234683026  0.104111849247676  0.4772735918122084  1.0000
  H   H8        1.0  0.12979577552008525  0.688652396883513  0.47748061594167934  1.0000
  H   H9        1.0  0.9028843726092839  0.9057214138697905  0.35597366669784325  1.0000
  H   H10       1.0  0.850228818245535  0.5797968792516742  0.3274959667977597  1.0000
  C   C20       1.0  0.008776630354034408  0.3987756135439053  0.9904041396723002  1.0000
  C   C21       1.0  0.9538351401759374  0.4842553387238978  0.05637719016043552  1.0000
  C   C22       1.0  0.9055857573860003  0.5772443015180162  0.9735264289050622  1.0000
  C   C23       1.0  0.911133023100324  0.5835141828638656  0.8227604230105792  1.0000
  C   C24       1.0  0.9642088711079184  0.49811095149603374  0.7553730436958457  1.0000
  C   C25       1.0  0.012550457654715075  0.40379880072906804  0.8369588726191703  1.0000
  C   C26       1.0  0.8461341856086594  0.6666657401345223  0.04588141729214445  1.0000
  C   C27       1.0  0.7589969404809725  0.604101671271612  0.06636882836093005  1.0000
  N   N4        1.0  0.7015467014193774  0.6924196417836307  0.13439456548962014  1.0000
  H   H11       1.0  0.07084165838656742  0.20525105673038022  0.2871963503944148  1.0000
  H   H12       1.0  0.9498038214504771  0.4806834580781633  0.17319076250957433  1.0000
  H   H13       1.0  0.8735760953681464  0.6538245218509253  0.7570596577957143  1.0000
  H   H14       1.0  0.9657399174238303  0.5036717828582313  0.6383589776013592  1.0000
  H   H15       1.0  0.12872590901230221  0.2837175423230915  0.5668541331742216  1.0000
  H   H16       1.0  0.8726752794099959  0.6892133698284155  0.15268750054562386  1.0000
  H   H17       1.0  0.839371345336189  0.7604708064463419  0.9795605219452206  1.0000
  H   H18       1.0  0.7325006737158999  0.5825967867611785  0.9591458667526691  1.0000
  H   H19       1.0  0.7649577818848043  0.5110516208499831  0.13457029888340255  1.0000
  H   H20       1.0  0.6416889243743115  0.6494192674170092  0.13859134571389364  1.0000
  H   H21       1.0  0.7213898346006816  0.698719290047116  0.24158184160145857  1.0000
  Zn  Zn1       1.0  0.9178182834851764  0.40221930656602534  0.41337214712234616  1.0000
  Zn  Zn2       1.0  0.10350066255201801  0.4003545518612763  0.4139901840767024  1.0000
  C   C28       1.0  0.011834066444824867  0.39767696364982363  0.6769412749983392  1.0000
  C   C29       1.0  0.009486908231336239  0.40489851345548344  0.15042120462183406  1.0000
  C   C30       1.0  0.010686035989692979  0.6383847868527297  0.40796635996585473  1.0000
  C   C31       1.0  0.010634875323453075  0.16418913144029054  0.41939619610164547  1.0000
  O   O2        1.0  0.08019077788606904  0.4062400856107648  0.20435893450975295  1.0000
  O   O3        1.0  0.08205882403761967  0.3949191038864798  0.6234722058118884  1.0000
  O   O4        1.0  0.08113083169897956  0.5892937337216215  0.40627305588280554  1.0000
  O   O5        1.0  0.08111870638416602  0.21186546505850812  0.42155797615394075  1.0000
  O   O6        1.0  0.9402001762887114  0.5907083940065105  0.4058043548266208  1.0000
  O   O7        1.0  0.9411281686260505  0.39633532362137425  0.6230034280898891  1.0000
  O   O8        1.0  0.9392601147954948  0.40765624981772275  0.20388842380016392  1.0000
  O   O9        1.0  0.9401880437698182  0.21328162062029898  0.4210875735107589  1.0000
