data_image0
_chemical_formula_structural       NC5NC3F3CH3C6BrH5C6NCOH5Zn2C4O8
_chemical_formula_sum              "N3 C26 F3 H13 Br1 O9 Zn2"
_cell_length_a       13.85151926108384
_cell_length_b       9.276564384272257
_cell_length_c       9.273733555595832
_cell_angle_alpha    86.1252681461469
_cell_angle_beta     90.01106478647557
_cell_angle_gamma    90.58593481197379

_space_group_name_H-M_alt    "P 1"
_space_group_IT_number       1

loop_
  _space_group_symop_operation_xyz
  'x, y, z'

loop_
  _atom_site_type_symbol
  _atom_site_label
  _atom_site_symmetry_multiplicity
  _atom_site_fract_x
  _atom_site_fract_y
  _atom_site_fract_z
  _atom_site_occupancy
  N   N1        1.0  0.9195681740134076  0.5611487891489235  0.40894368498097555  1.0000
  C   C1        1.0  0.8471891442471805  0.5527397233707194  0.47140265654102187  1.0000
  C   C2        1.0  0.7571439355483432  0.5422776963330125  0.5491105523184343  1.0000
  C   C3        1.0  0.6696657130650362  0.5506881069559888  0.47359657782586484  1.0000
  C   C4        1.0  0.5820919459503765  0.5422776829727005  0.5491105322759555  1.0000
  C   C5        1.0  0.4921698922575721  0.5527397405292604  0.4714027505717815  1.0000
  N   N2        1.0  0.41988998816205536  0.5611487523936789  0.40894379043999773  1.0000
  C   C6        1.0  0.5819803400017576  0.5244608122330712  0.7003153065084062  1.0000
  C   C7        1.0  0.6694460480198506  0.5128742895411054  0.7770937729607901  1.0000
  C   C8        1.0  0.6693724645805517  0.49904751998936003  0.9400880333038031  1.0000
  F   F1        1.0  0.7498049850228202  0.4247900844525789  0.9917403498661699  1.0000
  F   F2        1.0  0.5879361701726842  0.4247900549202365  0.9917404491644005  1.0000
  F   F3        1.0  0.6703130327184734  0.6354105378329862  0.9916801924815954  1.0000
  C   C9        1.0  0.7570506661943363  0.5244607171945963  0.7003153262008943  1.0000
  H   H1        1.0  0.6697461351099159  0.5646427530798415  0.3565283435399196  1.0000
  H   H2        1.0  0.5138333236757193  0.5199018012040855  0.7579576340121598  1.0000
  H   H3        1.0  0.8251500766325957  0.5199017198683218  0.7579575930495421  1.0000
  C   C10       1.0  0.16682511874714176  0.13767177735838576  0.4093122581435099  1.0000
  C   C11       1.0  0.1544263923938761  0.21975695707085974  0.2775885047355313  1.0000
  C   C12       1.0  0.1510125730696819  0.15336718756071832  0.14709511789151652  1.0000
  C   C13       1.0  0.15997552426976408  0.003946635191423463  0.14584768422984373  1.0000
  C   C14       1.0  0.17067309295120814  0.9201467427205295  0.27557955190401007  1.0000
  C   C15       1.0  0.17264220037717976  0.9846148002305867  0.4085875921486213  1.0000
  Br  Br1       1.0  0.15601501567149192  0.913666580709389  0.9667879576725561  1.0000
  H   H4        1.0  0.13856327451889716  0.4027395789947636  0.64362095274552  1.0000
  H   H5        1.0  0.14966164136489976  0.3363868618748668  0.2751211705196422  1.0000
  H   H6        1.0  0.14231667038303233  0.21850969618106417  0.046705482219718375  1.0000
  H   H7        1.0  0.17513929707739959  0.8038734026216526  0.2724722993934677  1.0000
  H   H8        1.0  0.22594471781579656  0.6890918772592505  0.6330539592409585  1.0000
  C   C16       1.0  0.1696472092443851  0.5565998179244795  0.9857268315975287  1.0000
  C   C17       1.0  0.08085918315605811  0.5483228171001185  0.05968537016279397  1.0000
  C   C18       1.0  0.9930293928183351  0.5517324098872465  0.9847329626318518  1.0000
  C   C19       1.0  0.9939940908516649  0.5681065468085003  0.8333712185392477  1.0000
  C   C20       1.0  0.081315695888607  0.5742316711721431  0.7582105284356659  1.0000
  C   C21       1.0  0.16982010185922625  0.5656867685650022  0.8321730895571213  1.0000
  N   N3        1.0  0.903977347704089  0.5466745452469363  0.06475177029687519  1.0000
  C   C22       1.0  0.8165435068555073  0.48026803022267095  0.01802615811488661  1.0000
  O   O1        1.0  0.8155116871512886  0.40395200610102133  0.9107406206128128  1.0000
  H   H9        1.0  0.39783247033541214  0.6567337576755621  0.0819546205571764  1.0000
  H   H10       1.0  0.9273859660072641  0.5777080075771113  0.772748386898161  1.0000
  H   H11       1.0  0.32422612422359376  0.6270335219545315  0.5470143735021917  1.0000
  H   H12       1.0  0.9038949596176746  0.5850181570164317  0.16813796266104353  1.0000
  H   H13       1.0  0.750641440163545  0.4923620942626364  0.07843664725273025  1.0000
  Zn  Zn1       1.0  0.06395021746361995  0.5611450179153479  0.40895202575862544  1.0000
  Zn  Zn2       1.0  0.275507848868654  0.5611408874027048  0.40894721070416695  1.0000
  C   C23       1.0  0.16974581135783406  0.5582242351880013  0.6721815186781082  1.0000
  C   C24       1.0  0.16971457770330978  0.5640634911483098  0.1457178576309066  1.0000
  C   C25       1.0  0.171536502351068  0.8244629084919008  0.40298147577908305  1.0000
  C   C26       1.0  0.16792380263601703  0.2978230860901583  0.4149179788512978  1.0000
  O   O2        1.0  0.25002216253912324  0.5665605092417776  0.19941048559835695  1.0000
  O   O3        1.0  0.25000556609129765  0.5557229897803746  0.6184848222518853  1.0000
  O   O4        1.0  0.2514504897403629  0.7707141016299046  0.4011038817177046  1.0000
  O   O5        1.0  0.24857716674854968  0.35156940654955715  0.4167913180640808  1.0000
  O   O6        1.0  0.09088082738949699  0.7707164987713933  0.4011079183927728  1.0000
  O   O7        1.0  0.08943591562026243  0.5557271186790129  0.6184887805996477  1.0000
  O   O8        1.0  0.0894525114332072  0.5665645692856565  0.19941271122894144  1.0000
  O   O9        1.0  0.08800751558991449  0.3515734574390248  0.4167936517571833  1.0000
