data_image0
_chemical_formula_structural       NC6NSH2C10H8C6H6Zn2C4O8
_chemical_formula_sum              "N2 C26 S1 H16 Zn2 O8"
_cell_length_a       14.474562073675546
_cell_length_b       12.925547966005277
_cell_length_c       10.302890899224296
_cell_angle_alpha    84.94910490916503
_cell_angle_beta     90.00590449567315
_cell_angle_gamma    88.12692530326781

_space_group_name_H-M_alt    "P 1"
_space_group_IT_number       1

loop_
  _space_group_symop_operation_xyz
  'x, y, z'

loop_
  _atom_site_type_symbol
  _atom_site_label
  _atom_site_symmetry_multiplicity
  _atom_site_fract_x
  _atom_site_fract_y
  _atom_site_fract_z
  _atom_site_occupancy
  N   N1        1.0  0.8367519691576533  0.13380559020606353  0.5522324586586971  1.0000
  C   C1        1.0  0.7592409388326037  0.1158497185328817  0.5445949703449369  1.0000
  C   C2        1.0  0.6630472229625042  0.0935681301673694  0.5351173890468446  1.0000
  C   C3        1.0  0.6283389415710916  0.00224145327920389  0.4962710288622098  1.0000
  C   C4        1.0  0.5316228518083699  0.0022415531415596137  0.496270717303632  1.0000
  C   C5        1.0  0.49158904429352546  0.09356823807273562  0.5351169153647295  1.0000
  C   C6        1.0  0.394096000076978  0.11584989014002399  0.5445947300479812  1.0000
  N   N2        1.0  0.3155379241078987  0.13380567398457588  0.5522323557010482  1.0000
  S   S1        1.0  0.5749557308332612  0.17459290996173693  0.5695816295077635  1.0000
  H   H1        1.0  0.6713086554941978  0.9376563034684353  0.4687995201999446  1.0000
  H   H2        1.0  0.4924192985375546  0.9376565324538901  0.46879885921054093  1.0000
  C   C7        1.0  0.08502449816340182  0.8294714676156861  0.5564721575842366  1.0000
  C   C8        1.0  0.17170015019054058  0.786645210586619  0.5978234238956417  1.0000
  C   C9        1.0  0.18897826089751402  0.6792785457053607  0.6060663571010161  1.0000
  C   C10       1.0  0.1198395863448134  0.6127178981358626  0.5730816380378545  1.0000
  C   C11       1.0  0.1367073898100235  0.5047778296190286  0.5811290713162862  1.0000
  C   C12       1.0  0.06727447433746492  0.438131759738802  0.5480040526801659  1.0000
  C   C13       1.0  0.9805327298763532  0.48095717027589424  0.5066210857661932  1.0000
  C   C14       1.0  0.9632436043813423  0.5883177510710098  0.4983726380603388  1.0000
  C   C15       1.0  0.032384211360762194  0.6548713625235582  0.5313582703533666  1.0000
  C   C16       1.0  0.015528311366062477  0.7628083647282708  0.5233165636019417  1.0000
  H   H3        1.0  0.12530142583249515  0.08676750914171283  0.5756878885057001  1.0000
  H   H4        1.0  0.22641471893373488  0.8361495601609337  0.6239271277833962  1.0000
  H   H5        1.0  0.2564311961378234  0.6483324681503029  0.6382465503494801  1.0000
  H   H6        1.0  0.20390575219756024  0.4728837551456627  0.613188383109797  1.0000
  H   H7        1.0  0.1847021978309748  0.20470475620230486  0.6040259689177214  1.0000
  H   H8        1.0  0.9258344588655384  0.4314127951325628  0.48052561095505264  1.0000
  H   H9        1.0  0.8957903878266105  0.6192616295774596  0.46619184042326567  1.0000
  H   H10       1.0  0.9483324140093188  0.7947434643790324  0.4912582956395535  1.0000
  C   C17       1.0  0.07612389707662603  0.13369847785978184  0.17100393212177734  1.0000
  C   C18       1.0  0.1019604228045616  0.23790607539899827  0.15844053031818683  1.0000
  C   C19       1.0  0.11477949250918362  0.28961024812902303  0.03532786162748769  1.0000
  C   C20       1.0  0.10202725243732821  0.23817602551965056  0.9234036999887176  1.0000
  C   C21       1.0  0.07617508323243147  0.1339048084550849  0.9334722556363944  1.0000
  C   C22       1.0  0.06335882560071315  0.0822123068555218  0.05780340678240891  1.0000
  H   H11       1.0  0.06633478445027818  0.09421610903146971  0.5030589177130249  1.0000
  H   H12       1.0  0.11229547474419596  0.27959087109019665  0.24367158014498244  1.0000
  H   H13       1.0  0.13469027465908412  0.3699173932097647  0.02661728246325556  1.0000
  H   H14       1.0  0.11240785013699893  0.2800450339667387  0.8290794511096569  1.0000
  H   H15       1.0  0.027481141136030948  0.9375061760702919  0.7452725921611515  1.0000
  H   H16       1.0  0.04343716698709543  0.0018612395064361294  0.06656137423447639  1.0000
  Zn  Zn1       1.0  0.9749193390150478  0.13380283281095928  0.552239970601113  1.0000
  Zn  Zn2       1.0  0.1773707994931683  0.13379992254377185  0.5522356167516075  1.0000
  C   C23       1.0  0.07628373764485841  0.12973716202323476  0.7894068477479994  1.0000
  C   C24       1.0  0.07600857350198639  0.13786690096013232  0.3150688487859168  1.0000
  C   C25       1.0  0.07062450190665825  0.32308063014446214  0.5444313349833787  1.0000
  C   C26       1.0  0.08166777647330091  0.9445221877300131  0.5600444480893485  1.0000
  O   O1        1.0  0.15279927587546438  0.13926023611276772  0.36341676150800817  1.0000
  O   O2        1.0  0.15314903214114395  0.1283408361209808  0.7410552677182467  1.0000
  O   O3        1.0  0.14857809210698147  0.28446813217087996  0.5432357929484546  1.0000
  O   O4        1.0  0.15737014660392412  0.9831329474511642  0.5612361388358823  1.0000
  O   O5        1.0  0.9949199228175112  0.28446980790568616  0.5432394485114798  1.0000
  O   O6        1.0  0.9994908265317788  0.12834375696679867  0.7410588367371025  1.0000
  O   O7        1.0  0.9991410712759683  0.13926312042180355  0.3634187701803557  1.0000
  O   O8        1.0  0.003711942223350037  0.9831358243740238  0.5612382449447897  1.0000
