data_image0
_chemical_formula_structural       Gd8H16C56N16O48
_chemical_formula_sum              "Gd8 H16 C56 N16 O48"
_cell_length_a       10.934
_cell_length_b       11.7927
_cell_length_c       19.2152
_cell_angle_alpha    90.0
_cell_angle_beta     90.0
_cell_angle_gamma    90.0

_space_group_name_H-M_alt    "P 1"
_space_group_IT_number       1

loop_
  _space_group_symop_operation_xyz
  'x, y, z'

loop_
  _atom_site_type_symbol
  _atom_site_label
  _atom_site_symmetry_multiplicity
  _atom_site_fract_x
  _atom_site_fract_y
  _atom_site_fract_z
  _atom_site_occupancy
  Gd  Gd1       1.0  0.3621  0.84276  0.42584  1.0000
  Gd  Gd2       1.0  0.8808599999999999  0.029440000000000004  0.21137  1.0000
  Gd  Gd3       1.0  0.6379  0.15724  0.9258399999999999  1.0000
  Gd  Gd4       1.0  0.11913999999999998  0.97056  0.7113699999999998  1.0000
  Gd  Gd5       1.0  0.1379  0.34276000000000006  0.42584  1.0000
  Gd  Gd6       1.0  0.61914  0.5294400000000001  0.21137  1.0000
  Gd  Gd7       1.0  0.8620999999999999  0.65724  0.9258399999999999  1.0000
  Gd  Gd8       1.0  0.38086000000000003  0.47056  0.7113699999999998  1.0000
  H   H1        1.0  0.1458  0.9969  0.3216  1.0000
  H   H2        1.0  0.2707  0.7493  0.1563  1.0000
  H   H3        1.0  0.6294  0.8986000000000002  0.3113  1.0000
  H   H4        1.0  0.4932  0.2606  0.3257  1.0000
  H   H5        1.0  0.8542  0.0031000000000000008  0.8216  1.0000
  H   H6        1.0  0.7293  0.25070000000000003  0.6563  1.0000
  H   H7        1.0  0.3706  0.10140000000000003  0.8113  1.0000
  H   H8        1.0  0.5068  0.7394  0.8257  1.0000
  H   H9        1.0  0.3542  0.4969000000000001  0.3216  1.0000
  H   H10       1.0  0.2293  0.24930000000000002  0.1563  1.0000
  H   H11       1.0  0.8706  0.39860000000000007  0.3113  1.0000
  H   H12       1.0  0.006800000000000001  0.7606000000000003  0.3257  1.0000
  H   H13       1.0  0.6458  0.5031  0.8216  1.0000
  H   H14       1.0  0.7707  0.7507000000000003  0.6563  1.0000
  H   H15       1.0  0.1294  0.6014  0.8113  1.0000
  H   H16       1.0  0.9932  0.2394  0.8257  1.0000
  C   C1        1.0  0.1685  0.9430000000000002  0.2888  1.0000
  C   C2        1.0  0.135  0.8593000000000002  0.1847  1.0000
  C   C3        1.0  0.2429  0.7969  0.1914  1.0000
  C   C4        1.0  0.305  0.8098  0.2521  1.0000
  C   C5        1.0  0.4139  0.7328000000000001  0.2696  1.0000
  C   C6        1.0  0.052399999999999995  0.8411  0.12229999999999999  1.0000
  C   C7        1.0  0.6016  0.9729  0.3142  1.0000
  C   C8        1.0  0.6266  0.1583  0.2864  1.0000
  C   C9        1.0  0.521  0.18620000000000006  0.3224  1.0000
  C   C10       1.0  0.4601  0.0973  0.3528  1.0000
  C   C11       1.0  0.3396  0.11640000000000002  0.391  1.0000
  C   C12       1.0  0.7035  0.2497  0.2509  1.0000
  C   C13       1.0  0.7005  0.0692  0.0804  1.0000
  C   C14       1.0  0.8226  0.1207  0.05499999999999999  1.0000
  C   C15       1.0  0.8315  0.05700000000000001  0.7888  1.0000
  C   C16       1.0  0.8650000000000001  0.14070000000000002  0.6847  1.0000
  C   C17       1.0  0.7571  0.20310000000000003  0.6914  1.0000
  C   C18       1.0  0.695  0.19020000000000006  0.7521  1.0000
  C   C19       1.0  0.5861  0.2672  0.7695999999999998  1.0000
  C   C20       1.0  0.9476  0.1589  0.6223  1.0000
  C   C21       1.0  0.3984  0.027100000000000016  0.8142  1.0000
  C   C22       1.0  0.3734  0.8417000000000001  0.7864  1.0000
  C   C23       1.0  0.47900000000000004  0.8138  0.8224  1.0000
  C   C24       1.0  0.5399  0.9027  0.8528  1.0000
  C   C25       1.0  0.6604  0.8836000000000004  0.891  1.0000
  C   C26       1.0  0.2965  0.7503000000000001  0.7509  1.0000
  C   C27       1.0  0.2995  0.9308000000000001  0.5804  1.0000
  C   C28       1.0  0.1774  0.8793000000000003  0.555  1.0000
  C   C29       1.0  0.3315  0.443  0.2888  1.0000
  C   C30       1.0  0.365  0.3593  0.1847  1.0000
  C   C31       1.0  0.2571  0.2969  0.1914  1.0000
  C   C32       1.0  0.195  0.3098000000000001  0.2521  1.0000
  C   C33       1.0  0.0861  0.23280000000000003  0.2696  1.0000
  C   C34       1.0  0.4476  0.34110000000000007  0.12229999999999999  1.0000
  C   C35       1.0  0.8984000000000001  0.4729  0.3142  1.0000
  C   C36       1.0  0.8734  0.6583000000000001  0.2864  1.0000
  C   C37       1.0  0.979  0.6862000000000001  0.3224  1.0000
  C   C38       1.0  0.03989999999999999  0.5973000000000002  0.3528  1.0000
  C   C39       1.0  0.1604  0.6164  0.391  1.0000
  C   C40       1.0  0.7965  0.7497  0.2509  1.0000
  C   C41       1.0  0.7995  0.5692  0.0804  1.0000
  C   C42       1.0  0.6774  0.6207  0.05499999999999999  1.0000
  C   C43       1.0  0.6685  0.557  0.7888  1.0000
  C   C44       1.0  0.635  0.6407  0.6847  1.0000
  C   C45       1.0  0.7429000000000001  0.7031000000000001  0.6914  1.0000
  C   C46       1.0  0.8049999999999999  0.6902000000000001  0.7521  1.0000
  C   C47       1.0  0.9139  0.7672  0.7695999999999998  1.0000
  C   C48       1.0  0.5524  0.6589  0.6223  1.0000
  C   C49       1.0  0.1016  0.5271  0.8142  1.0000
  C   C50       1.0  0.1266  0.3417  0.7864  1.0000
  C   C51       1.0  0.021  0.3138  0.8224  1.0000
  C   C52       1.0  0.9601000000000001  0.4027000000000001  0.8528  1.0000
  C   C53       1.0  0.8396  0.3836  0.891  1.0000
  C   C54       1.0  0.20349999999999996  0.2503  0.7509  1.0000
  C   C55       1.0  0.20050000000000004  0.4308000000000001  0.5804  1.0000
  C   C56       1.0  0.3226  0.37930000000000014  0.555  1.0000
  N   N1        1.0  0.2698  0.8835  0.3016  1.0000
  N   N2        1.0  0.0971  0.9318000000000003  0.2331  1.0000
  N   N3        1.0  0.4992  0.9908  0.3512  1.0000
  N   N4        1.0  0.6669  0.05140000000000001  0.2813  1.0000
  N   N5        1.0  0.7302  0.11650000000000003  0.8016  1.0000
  N   N6        1.0  0.9029  0.0682  0.7331  1.0000
  N   N7        1.0  0.5008  0.0092  0.8512  1.0000
  N   N8        1.0  0.3331  0.9486000000000001  0.7813  1.0000
  N   N9        1.0  0.2302  0.3835  0.3016  1.0000
  N   N10       1.0  0.4029  0.43180000000000013  0.2331  1.0000
  N   N11       1.0  0.0008  0.4908  0.3512  1.0000
  N   N12       1.0  0.8331  0.5514  0.2813  1.0000
  N   N13       1.0  0.7698  0.6165000000000002  0.8016  1.0000
  N   N14       1.0  0.5971  0.5682  0.7331  1.0000
  N   N15       1.0  0.9992  0.5092000000000001  0.8512  1.0000
  N   N16       1.0  0.1669  0.4486  0.7813  1.0000
  O   O1        1.0  0.4538  0.7405000000000002  0.3314  1.0000
  O   O2        1.0  0.45069999999999993  0.6673  0.22369999999999998  1.0000
  O   O3        1.0  0.9541  0.8985000000000002  0.1219  1.0000
  O   O4        1.0  0.0867  0.7720000000000001  0.0793  1.0000
  O   O5        1.0  0.2954  0.0354  0.4254  1.0000
  O   O6        1.0  0.2915  0.21230000000000002  0.3833  1.0000
  O   O7        1.0  0.8002  0.21760000000000002  0.22199999999999998  1.0000
  O   O8        1.0  0.6658  0.34880000000000005  0.2549  1.0000
  O   O9        1.0  0.6107  0.0825  0.0423  1.0000
  O   O10       1.0  0.7047  0.015100000000000002  0.1372  1.0000
  O   O11       1.0  0.8269  0.1536  0.9934999999999999  1.0000
  O   O12       1.0  0.9091  0.12490000000000001  0.1003  1.0000
  O   O13       1.0  0.5462  0.2595  0.8314  1.0000
  O   O14       1.0  0.5493  0.3327  0.7237  1.0000
  O   O15       1.0  0.04590000000000001  0.1015  0.6219  1.0000
  O   O16       1.0  0.9133  0.22800000000000004  0.5793  1.0000
  O   O17       1.0  0.7046  0.9646000000000002  0.9253999999999999  1.0000
  O   O18       1.0  0.7085  0.7877000000000002  0.8832999999999999  1.0000
  O   O19       1.0  0.1998  0.7824  0.722  1.0000
  O   O20       1.0  0.3342  0.6512  0.7549  1.0000
  O   O21       1.0  0.3893  0.9175000000000001  0.5423  1.0000
  O   O22       1.0  0.2953  0.9849  0.6372  1.0000
  O   O23       1.0  0.1731  0.8464000000000003  0.49349999999999994  1.0000
  O   O24       1.0  0.0909  0.8751000000000002  0.6003  1.0000
  O   O25       1.0  0.04619999999999999  0.24050000000000002  0.3314  1.0000
  O   O26       1.0  0.0493  0.16730000000000003  0.22369999999999998  1.0000
  O   O27       1.0  0.5459  0.3985000000000001  0.1219  1.0000
  O   O28       1.0  0.41329999999999995  0.272  0.0793  1.0000
  O   O29       1.0  0.2046  0.5354  0.4254  1.0000
  O   O30       1.0  0.2085  0.7123  0.3833  1.0000
  O   O31       1.0  0.6998  0.7176000000000002  0.22199999999999998  1.0000
  O   O32       1.0  0.8341999999999999  0.8488  0.2549  1.0000
  O   O33       1.0  0.8893  0.5825000000000001  0.0423  1.0000
  O   O34       1.0  0.7953000000000001  0.5151000000000001  0.1372  1.0000
  O   O35       1.0  0.6731  0.6536  0.9934999999999999  1.0000
  O   O36       1.0  0.5909  0.6249  0.1003  1.0000
  O   O37       1.0  0.9537999999999999  0.7595  0.8314  1.0000
  O   O38       1.0  0.9507  0.8327000000000002  0.7237  1.0000
  O   O39       1.0  0.45409999999999995  0.6015  0.6219  1.0000
  O   O40       1.0  0.5867  0.728  0.5793  1.0000
  O   O41       1.0  0.7953999999999999  0.46460000000000007  0.9253999999999999  1.0000
  O   O42       1.0  0.7915000000000001  0.2877  0.8832999999999999  1.0000
  O   O43       1.0  0.3002  0.28240000000000004  0.722  1.0000
  O   O44       1.0  0.1658  0.15120000000000003  0.7549  1.0000
  O   O45       1.0  0.1107  0.4175  0.5423  1.0000
  O   O46       1.0  0.2047  0.4849  0.6372  1.0000
  O   O47       1.0  0.3269  0.3464  0.49349999999999994  1.0000
  O   O48       1.0  0.4091  0.37510000000000004  0.6003  1.0000
