data_image0
_chemical_formula_structural       NC9NC3OH6C6H4C7F3H5Zn2C4O8
_chemical_formula_sum              "N2 C29 O9 H15 F3 Zn2"
_cell_length_a       15.78231758774541
_cell_length_b       10.681118228259553
_cell_length_c       9.272291681409872
_cell_angle_alpha    86.06048178151603
_cell_angle_beta     90.4979467289142
_cell_angle_gamma    89.63144314392761

_space_group_name_H-M_alt    "P 1"
_space_group_IT_number       1

loop_
  _space_group_symop_operation_xyz
  'x, y, z'

loop_
  _atom_site_type_symbol
  _atom_site_label
  _atom_site_symmetry_multiplicity
  _atom_site_fract_x
  _atom_site_fract_y
  _atom_site_fract_z
  _atom_site_occupancy
  N   N1        1.0  0.7911703497793168  0.35081307956993507  0.41243268289640467  1.0000
  C   C1        1.0  0.7427518914408062  0.27188198036502587  0.43916400144682277  1.0000
  C   C2        1.0  0.6826385449495631  0.17390930325132237  0.4723444543491744  1.0000
  C   C3        1.0  0.7024778568724059  0.050839166995352736  0.5139362956904376  1.0000
  C   C4        1.0  0.6258332733769384  0.9911951862971786  0.5341760910047959  1.0000
  C   C5        1.0  0.5639220173551475  0.08228151846571752  0.5034391943825337  1.0000
  C   C6        1.0  0.4708556119096345  0.06544181713027418  0.5092238485006244  1.0000
  C   C7        1.0  0.41696168282862767  0.16869820794350907  0.4741965180974681  1.0000
  C   C8        1.0  0.3287753822949852  0.15489011660479135  0.4789477450393473  1.0000
  C   C9        1.0  0.2741805870337878  0.2611507365359209  0.44289212174562875  1.0000
  N   N2        1.0  0.2302992801498532  0.34657055468164644  0.41390662309761156  1.0000
  C   C10       1.0  0.2938019546336956  0.037671968835745404  0.5187806912985988  1.0000
  C   C11       1.0  0.34676466392917327  0.9346290942373728  0.5537404405883766  1.0000
  C   C12       1.0  0.43476585078293845  0.948057844494708  0.5491183255133987  1.0000
  O   O1        1.0  0.6002252020715617  0.19022984503301818  0.46690378505956204  1.0000
  H   H1        1.0  0.7649976235334266  0.009335075653680967  0.5279061073269435  1.0000
  H   H2        1.0  0.6172420260986657  0.8931239365593974  0.5673364393899396  1.0000
  H   H3        1.0  0.4434354264168421  0.25991467180673733  0.443194181401255  1.0000
  H   H4        1.0  0.22570274968339352  0.025977215234030966  0.5228023772907189  1.0000
  H   H5        1.0  0.3195597060826483  0.8440362370116654  0.5845312994640908  1.0000
  H   H6        1.0  0.47396997665766516  0.8664407003541456  0.5768180673293384  1.0000
  C   C13       1.0  0.010738895623264124  0.9809418289409059  0.41317586004145807  1.0000
  C   C14       1.0  0.0484185528934917  0.9069338794746393  0.5277959305782847  1.0000
  C   C15       1.0  0.048418539661153615  0.7760516409262075  0.5277958646207352  1.0000
  C   C16       1.0  0.010738881659455354  0.7164322335058457  0.41317592231668704  1.0000
  C   C17       1.0  0.9730904150451145  0.7904292002568185  0.298650571014089  1.0000
  C   C18       1.0  0.9730904282038492  0.9213214586728193  0.298650629570822  1.0000
  H   H7        1.0  0.07795369597714269  0.9501055899356974  0.617640506866304  1.0000
  H   H8        1.0  0.07795359169185878  0.7216015621541081  0.6176404810499905  1.0000
  H   H9        1.0  0.9435514209198653  0.7473029810796326  0.20879426381764207  1.0000
  H   H10       1.0  0.943551398659836  0.9757274202395748  0.20879425202020818  1.0000
  C   C19       1.0  0.008955382014844023  0.3454896732413617  0.9898091946473606  1.0000
  C   C20       1.0  0.06594204971586581  0.266124565366199  0.07021983753766524  1.0000
  C   C21       1.0  0.12753303697182938  0.19793650102827162  0.0016295406062831713  1.0000
  C   C22       1.0  0.13460256409464622  0.2087861694484081  0.8507609303158614  1.0000
  C   C23       1.0  0.07592755738209078  0.28401877979051937  0.7691744227676613  1.0000
  C   C24       1.0  0.012522371518286494  0.35188439192109433  0.836542548296391  1.0000
  C   C25       1.0  0.1996544935707042  0.1323144637099789  0.7763939378543667  1.0000
  F   F1        1.0  0.27060256011906403  0.11048395598030991  0.8635512145541231  1.0000
  F   F2        1.0  0.22501579794417104  0.19473976162335216  0.6484066397461588  1.0000
  F   F3        1.0  0.16474421638271652  0.018534045488906695  0.7463176961902355  1.0000
  H   H11       1.0  0.8896335907171382  0.5997010949643922  0.06949935263814999  1.0000
  H   H12       1.0  0.06398639959736102  0.25866682719224454  0.18725996033561065  1.0000
  H   H13       1.0  0.1702175878272123  0.1374023408213516  0.06698614643704359  1.0000
  H   H14       1.0  0.07834336997964832  0.2873358291079857  0.652194738486406  1.0000
  H   H15       1.0  0.8204987973798673  0.47370665010389235  0.7225557157021795  1.0000
  Zn  Zn1       1.0  0.9178935047760544  0.3495854962573721  0.4128663488746085  1.0000
  Zn  Zn2       1.0  0.1035761463088622  0.34778800604299276  0.4134847425467232  1.0000
  C   C26       1.0  0.011846253581033308  0.3456867204559973  0.6764918378921166  1.0000
  C   C27       1.0  0.009625425748609688  0.35168834338797605  0.1498594017857231  1.0000
  C   C28       1.0  0.010710312377326663  0.57736551997402  0.4074308140949474  1.0000
  C   C29       1.0  0.010761303915659319  0.12000804048056855  0.41892050223520083  1.0000
  O   O2        1.0  0.08031589331524785  0.35308107213171436  0.20380839055338118  1.0000
  O   O3        1.0  0.08208461278564222  0.34292879036034796  0.6230117805974908  1.0000
  O   O4        1.0  0.08116638230294959  0.5300123714664162  0.40574309706639644  1.0000
  O   O5        1.0  0.08123405998165256  0.16599749978109535  0.4210769657755278  1.0000
  O   O6        1.0  0.9402355277388593  0.5313760031339709  0.4052741254271932  1.0000
  O   O7        1.0  0.9411537578938052  0.34429392603198905  0.6225427320873684  1.0000
  O   O8        1.0  0.9393850311777554  0.35444615107240196  0.20333760869543238  1.0000
  O   O9        1.0  0.9403031982960438  0.16736257058103576  0.42060629200791655  1.0000
