data_image0
_chemical_formula_structural       NC9NC3OH6C6BrH3C8H10Zn2C4O8
_chemical_formula_sum              "N2 C30 O9 H19 Br1 Zn2"
_cell_length_a       15.78231758774541
_cell_length_b       10.302969083221269
_cell_length_c       9.275657083861812
_cell_angle_alpha    85.85419780113546
_cell_angle_beta     89.58874472212383
_cell_angle_gamma    89.63144763104106

_space_group_name_H-M_alt    "P 1"
_space_group_IT_number       1

loop_
  _space_group_symop_operation_xyz
  'x, y, z'

loop_
  _atom_site_type_symbol
  _atom_site_label
  _atom_site_symmetry_multiplicity
  _atom_site_fract_x
  _atom_site_fract_y
  _atom_site_fract_z
  _atom_site_occupancy
  N   N1        1.0  0.8059516361595542  0.40540148097497686  0.412635130254817  1.0000
  C   C1        1.0  0.7572842888015613  0.32348902724213824  0.43936305123454417  1.0000
  C   C2        1.0  0.6968620069178632  0.22181576335603892  0.47253928687614805  1.0000
  C   C3        1.0  0.7163140669749382  0.09409734751110732  0.5141258419149226  1.0000
  C   C4        1.0  0.6394810355123643  0.03220039035035116  0.5343630647122668  1.0000
  C   C5        1.0  0.5778559635229499  0.12672684950315793  0.5036300747072346  1.0000
  C   C6        1.0  0.48473569853652915  0.10925082804607555  0.509413993543314  1.0000
  C   C7        1.0  0.43116790068085187  0.2164075613116312  0.47439111517430543  1.0000
  C   C8        1.0  0.34293736260259655  0.2020776798480599  0.4791417381875094  1.0000
  C   C9        1.0  0.2886782727582402  0.3123521510681968  0.44309069763114284  1.0000
  N   N2        1.0  0.2450668430254656  0.4009985919071128  0.4141088830952169  1.0000
  C   C10       1.0  0.30759305976934964  0.08043158789678495  0.5189696215696811  1.0000
  C   C11       1.0  0.360230267072099  0.9734964207722888  0.5539249274121318  1.0000
  C   C12       1.0  0.4482744893403554  0.9874326308068426  0.5493033998552362  1.0000
  O   O1        1.0  0.6144993208456507  0.23875248512829253  0.4670993090486597  1.0000
  H   H1        1.0  0.7787037639919885  0.05102585201686204  0.5280938780287112  1.0000
  H   H2        1.0  0.6305810400215719  0.9304249993749453  0.5675191984235015  1.0000
  H   H3        1.0  0.4579302997163767  0.311069765974467  0.44339271896348587  1.0000
  H   H4        1.0  0.2394564098564244  0.06829491195716607  0.5229907963664799  1.0000
  H   H5        1.0  0.3327386227984631  0.8794813782658276  0.5847118726816103  1.0000
  H   H6        1.0  0.4872207094436907  0.902732490516471  0.5769996209785178  1.0000
  C   C13       1.0  0.02551324267830267  0.02195252229714084  0.41337828636456797  1.0000
  C   C14       1.0  0.1132348030916035  0.01827148760154973  0.43796708791632555  1.0000
  C   C15       1.0  0.15674941955402855  0.8995076447380287  0.4501642700129374  1.0000
  C   C16       1.0  0.11323487101384927  0.7831891260578683  0.4379668146135656  1.0000
  C   C17       1.0  0.025513256192783756  0.784437539077382  0.4133781908399161  1.0000
  C   C18       1.0  0.9820760809648581  0.9044155128903609  0.40120259327294305  1.0000
  Br  Br1       1.0  0.2760658399528999  0.8961551609859426  0.48360966327883165  1.0000
  H   H7        1.0  0.14815509675204042  0.1072896313966054  0.4477555835239735  1.0000
  H   H8        1.0  0.14815519976571545  0.6922086932247749  0.4477549345151604  1.0000
  H   H9        1.0  0.9144218389500887  0.9063163746118165  0.38223895654510687  1.0000
  C   C19       1.0  0.02767154887579147  0.40121628346097116  0.9900656080318165  1.0000
  C   C20       1.0  0.07156299922422882  0.49974282016412586  0.05515328146707654  1.0000
  C   C21       1.0  0.1079727579402649  0.603900989806589  0.9715368783001078  1.0000
  C   C22       1.0  0.10174860496930654  0.608634287380715  0.8208771020748223  1.0000
  C   C23       1.0  0.05968722484630339  0.5106706707244739  0.7543429666953383  1.0000
  C   C24       1.0  0.023354947130158624  0.40517378043285296  0.8366909069289516  1.0000
  C   C25       1.0  0.15578157558740857  0.7075313568886068  0.04289721635269327  1.0000
  C   C26       1.0  0.24885088931369193  0.669551811808774  0.06105418808867125  1.0000
  H   H10       1.0  0.9896382129296962  0.19448398144937107  0.28776504236105205  1.0000
  H   H11       1.0  0.07594394613739053  0.49729194013560596  0.17189301074564045  1.0000
  H   H12       1.0  0.13031381159173716  0.6876975864237651  0.7545867291695632  1.0000
  H   H13       1.0  0.05750679180633855  0.5157519698221975  0.6373613279036001  1.0000
  H   H14       1.0  0.9233124344022853  0.2565502150570049  0.568520775133686  1.0000
  H   H15       1.0  0.15114126296730745  0.8018283960288082  0.977041321996505  1.0000
  H   H16       1.0  0.1275997890159135  0.7225175013729948  0.1506791272391388  1.0000
  H   H17       1.0  0.25488279278994863  0.5771341105598642  0.12982262918802445  1.0000
  H   H18       1.0  0.2786687566328212  0.6573042390110306  0.9539794494589656  1.0000
  H   H19       1.0  0.2829251809071458  0.7471438577289771  0.11373514428834276  1.0000
  Zn  Zn1       1.0  0.9326707533972197  0.4041274733054785  0.4130687411031795  1.0000
  Zn  Zn2       1.0  0.11834763721353186  0.40226205856392316  0.41368705617130663  1.0000
  C   C27       1.0  0.02416898894414208  0.3992537275703638  0.6766605684546576  1.0000
  C   C28       1.0  0.026851428531062586  0.4071374226880651  0.1500953770570941  1.0000
  C   C29       1.0  0.025538181373442548  0.6402848458457993  0.40763385490270077  1.0000
  C   C30       1.0  0.025482172351344073  0.16610474560255462  0.4191221672518721  1.0000
  O   O2        1.0  0.09703959839644782  0.4084110319924874  0.20403747677858441  1.0000
  O   O3        1.0  0.0949052797404028  0.39656333028952906  0.6231873406007746  1.0000
  O   O4        1.0  0.09600996242012472  0.5911990231010407  0.4059463628355823  1.0000
  O   O5        1.0  0.09593485290886034  0.21377534859954528  0.42127834624865745  1.0000
  O   O6        1.0  0.955083474339522  0.5926141839078085  0.40547745080724584  1.0000
  O   O7        1.0  0.9539787920478496  0.39798005054432384  0.6227183517110353  1.0000
  O   O8        1.0  0.9561131195967548  0.4098276989037366  0.2035667547623612  1.0000
  O   O9        1.0  0.955008373554664  0.21519200673017735  0.4208077323089712  1.0000
