data_image0
_chemical_formula_structural       NC5NC3OH4C6NH7C6BrH4Zn2C4O8
_chemical_formula_sum              "N3 C24 O9 H15 Br1 Zn2"
_cell_length_a       13.84702359539666
_cell_length_b       9.274771166103582
_cell_length_c       9.276567756262422
_cell_angle_alpha    86.01325923358289
_cell_angle_beta     90.17190505705399
_cell_angle_gamma    90.59789355945463

_space_group_name_H-M_alt    "P 1"
_space_group_IT_number       1

loop_
  _space_group_symop_operation_xyz
  'x, y, z'

loop_
  _atom_site_type_symbol
  _atom_site_label
  _atom_site_symmetry_multiplicity
  _atom_site_fract_x
  _atom_site_fract_y
  _atom_site_fract_z
  _atom_site_occupancy
  N   N1        1.0  0.9168195185764346  0.5631052611712195  0.40743603005693485  1.0000
  C   C1        1.0  0.8447564239658063  0.5550513273768174  0.4704852767378809  1.0000
  C   C2        1.0  0.7550108425625999  0.5450224784081286  0.5489948735343246  1.0000
  C   C3        1.0  0.667329267574593  0.5547109762628022  0.4731489675446137  1.0000
  C   C4        1.0  0.5795641646492363  0.545135043051727  0.5481132516132192  1.0000
  C   C5        1.0  0.489612806024192  0.5551101118487529  0.47002477973860596  1.0000
  N   N2        1.0  0.41730355132840163  0.5631293035751193  0.4072478737277234  1.0000
  C   C6        1.0  0.5794755729888167  0.5258417045107278  0.6991487794585279  1.0000
  C   C7        1.0  0.6667770041717768  0.516144149227632  0.7750627056076433  1.0000
  C   C8        1.0  0.7548581602146586  0.5256583843172586  0.7005830200101104  1.0000
  O   O1        1.0  0.8418801302018658  0.5159442913884857  0.776628326506799  1.0000
  H   H1        1.0  0.6674024818261165  0.5696579128891692  0.3561396364804619  1.0000
  H   H2        1.0  0.5119966419752932  0.5183049321064128  0.7581491209032218  1.0000
  H   H3        1.0  0.665925139601173  0.5012268663364252  0.8918406660341984  1.0000
  H   H4        1.0  0.8435526075169926  0.5019830939706853  0.8859207931770396  1.0000
  C   C9        1.0  0.16410302939443144  0.13952827930470324  0.40812841083971857  1.0000
  C   C10       1.0  0.14159097750155825  0.22157359419815734  0.2792862954628459  1.0000
  C   C11       1.0  0.1280937034984102  0.15525319581242034  0.1496232891993574  1.0000
  C   C12       1.0  0.13715699960944594  0.005500810491968046  0.1478631820392886  1.0000
  C   C13       1.0  0.1578792834470617  0.9221186404798294  0.2749359401698379  1.0000
  C   C14       1.0  0.17002922786877717  0.9866953367401865  0.4065679620040137  1.0000
  N   N3        1.0  0.10617180556319283  0.24038416301167567  0.019364809366319458  1.0000
  H   H5        1.0  0.27349585219345207  0.22228322070858253  0.7234242877457493  1.0000
  H   H6        1.0  0.13672042541054608  0.33816064592315787  0.27873465065282166  1.0000
  H   H7        1.0  0.1272292826775201  0.953035693728943  0.048100408580807226  1.0000
  H   H8        1.0  0.16212596841725135  0.8059144009658985  0.2708077792991448  1.0000
  H   H9        1.0  0.2398003520380696  0.6917342419874603  0.6210825446759136  1.0000
  H   H10       1.0  0.09951796934533053  0.35245728617758165  0.019320512430063053  1.0000
  H   H11       1.0  0.09634032799463776  0.1919594734240246  0.9219715729539778  1.0000
  C   C15       1.0  0.16611531425079162  0.5589664311618354  0.9842294013687267  1.0000
  C   C16       1.0  0.08054032964650948  0.5936877240396583  0.05480854278557668  1.0000
  C   C17       1.0  0.9993398796499252  0.6402910124133856  0.9760523567212599  1.0000
  C   C18       1.0  0.002189702583216496  0.6531169296080555  0.8255318501023812  1.0000
  C   C19       1.0  0.08586051992553068  0.6168373401425681  0.7532292284278568  1.0000
  C   C20       1.0  0.16801696085480258  0.567257194316928  0.830466959543312  1.0000
  Br  Br1       1.0  0.8910602340567133  0.7180608890469025  0.7182039429120239  1.0000
  H   H12       1.0  0.29805245729415497  0.4279555268403251  0.27525496968512986  1.0000
  H   H13       1.0  0.9344249105670627  0.6677899060484279  0.032343566200452534  1.0000
  H   H14       1.0  0.08576007242505979  0.6242055863993723  0.6361652501088236  1.0000
  H   H15       1.0  0.3268119887475603  0.5523699393245565  0.5510399163491075  1.0000
  Zn  Zn1       1.0  0.06124838930884269  0.563108419114617  0.4073900474891232  1.0000
  Zn  Zn2       1.0  0.272874600396259  0.5631144581089447  0.40730563710489465  1.0000
  C   C21       1.0  0.16761512870079387  0.5599435837166438  0.6705205112402546  1.0000
  C   C22       1.0  0.16651018500536366  0.5662811149843259  0.14417531050019328  1.0000
  C   C23       1.0  0.1688911651105529  0.8265064460764135  0.40112118038978695  1.0000
  C   C24       1.0  0.1652340644318742  0.29971652033638474  0.4135747213901535  1.0000
  O   O2        1.0  0.24695370742495348  0.5687319884848725  0.19782259701937854  1.0000
  O   O3        1.0  0.24779099525512827  0.5574962014250098  0.6168087464246628  1.0000
  O   O4        1.0  0.2488203315290931  0.7727490985753398  0.39926687838706165  1.0000
  O   O5        1.0  0.24592429876671185  0.35347910059276355  0.41536435703214636  1.0000
  O   O6        1.0  0.08819861872074355  0.7727437766302336  0.39933132758309475  1.0000
  O   O7        1.0  0.08716929439286414  0.5574926117675103  0.6168731156024267  1.0000
  O   O8        1.0  0.08633200238249762  0.5687283315893412  0.19788523395675608  1.0000
  O   O9        1.0  0.08530259389088757  0.35347543443844587  0.4154271020155813  1.0000
