data_image0
_chemical_formula_structural       NC9NC3SH6C6NO2H5C7ONH7Zn2C4O8
_chemical_formula_sum              "N4 C29 S1 H18 O11 Zn2"
_cell_length_a       16.77567553997237
_cell_length_b       9.273392599741053
_cell_length_c       10.297855452804894
_cell_angle_alpha    85.66470054647645
_cell_angle_beta     90.3897855956152
_cell_angle_gamma    90.29770283283837

_space_group_name_H-M_alt    "P 1"
_space_group_IT_number       1

loop_
  _space_group_symop_operation_xyz
  'x, y, z'

loop_
  _atom_site_type_symbol
  _atom_site_label
  _atom_site_symmetry_multiplicity
  _atom_site_fract_x
  _atom_site_fract_y
  _atom_site_fract_z
  _atom_site_occupancy
  N   N1        1.0  0.7416398938253719  0.5992928922517082  0.5772956483292804  1.0000
  C   C1        1.0  0.6865750087246294  0.6540533084498055  0.6190142627870441  1.0000
  C   C2        1.0  0.6182387078695952  0.7220073645476139  0.6707838725678543  1.0000
  C   C3        1.0  0.6198080785171348  0.819792371764374  0.7660548142693382  1.0000
  C   C4        1.0  0.5438927664721819  0.8680549927511796  0.7976703859298027  1.0000
  C   C5        1.0  0.4822368165651554  0.808064360199664  0.7269204464955202  1.0000
  C   C6        1.0  0.3955798982719089  0.8370030732953404  0.7378320849957527  1.0000
  C   C7        1.0  0.33927230831963384  0.7486468311390715  0.6793552065587057  1.0000
  C   C8        1.0  0.2574779251990227  0.7753534718188437  0.6892055157215371  1.0000
  C   C9        1.0  0.20051990208078646  0.6840344769562905  0.6293270469315062  1.0000
  N   N2        1.0  0.1547425994773096  0.610627091314673  0.5811936042591062  1.0000
  C   C10       1.0  0.23115932332752107  0.890764553315575  0.7573722504208649  1.0000
  C   C11       1.0  0.2863742815452265  0.9792972671849574  0.8153877859768712  1.0000
  C   C12       1.0  0.368008684110839  0.9529938869688821  0.8058329463573772  1.0000
  S   S1        1.0  0.5234762720128554  0.6947375696135758  0.6255607998649431  1.0000
  H   H1        1.0  0.6740058309924245  0.8551569884773166  0.8119042402741015  1.0000
  H   H2        1.0  0.5351918772597969  0.9434292651433539  0.8713213905897776  1.0000
  H   H3        1.0  0.358589171110964  0.6583897709350484  0.6267137199945039  1.0000
  H   H4        1.0  0.1680510477630563  0.9123691033509573  0.7655054890211779  1.0000
  H   H5        1.0  0.2658806717519292  0.06887538508009561  0.8677103605950236  1.0000
  H   H6        1.0  0.40903569128009765  0.024756976044271177  0.8507459402694137  1.0000
  C   C13       1.0  0.9506250427440224  0.1814984198616241  0.5784508087124252  1.0000
  C   C14       1.0  0.9404836364391022  0.26459925004980955  0.45970186866320345  1.0000
  C   C15       1.0  0.9233074026165822  0.19906372800614244  0.34519195344488307  1.0000
  C   C16       1.0  0.9157039185650684  0.04843876614342668  0.3462360265015061  1.0000
  C   C17       1.0  0.9270887820952732  0.9642039335881198  0.4640909317433779  1.0000
  C   C18       1.0  0.9457651425736285  0.028410665280542032  0.5800497317352873  1.0000
  N   N3        1.0  0.8972876289351878  0.9814528449356874  0.22790570115655662  1.0000
  O   O1        1.0  0.8868377176370897  0.06429601288487063  0.11249093665780151  1.0000
  O   O2        1.0  0.8902682137753101  0.8473269466264675  0.22804683208701212  1.0000
  H   H7        1.0  0.9343666840987485  0.25744502872489616  0.8970936614083146  1.0000
  H   H8        1.0  0.9439685954876268  0.3815382963395999  0.4558971271108816  1.0000
  H   H9        1.0  0.9151697275301128  0.26678222316854594  0.25584208501529915  1.0000
  H   H10       1.0  0.9232385662930985  0.8474958928337705  0.46497919906798807  1.0000
  H   H11       1.0  0.9375341343206  0.730040703783033  0.7954275593472158  1.0000
  C   C19       1.0  0.9482255381001341  0.6050987651730586  0.1978088388526853  1.0000
  C   C20       1.0  0.8664914005005266  0.6376261239411163  0.19371600134814826  1.0000
  C   C21       1.0  0.8248672016140791  0.6528772965377633  0.07463831448786905  1.0000
  C   C22       1.0  0.866396340829057  0.637299075491413  0.9584815618089791  1.0000
  C   C23       1.0  0.9481646362442309  0.6048103094179498  0.960691712608248  1.0000
  C   C24       1.0  0.9884977054823121  0.5885888218997606  0.08081010401883293  1.0000
  C   C25       1.0  0.7385975521894835  0.6875767526315066  0.07289229777708472  1.0000
  O   O3        1.0  0.7087477176645295  0.748298755101701  0.16653966338276005  1.0000
  N   N4        1.0  0.6878107484167816  0.6520792447588918  0.9677228194267489  1.0000
  H   H12       1.0  0.10276278607051847  0.5441406294747486  0.4127777568948876  1.0000
  H   H13       1.0  0.8348993582859905  0.6499085637509743  0.28360114040984086  1.0000
  H   H14       1.0  0.8356815869098989  0.6530867494968783  0.8658328187824509  1.0000
  H   H15       1.0  0.05149053287687666  0.5635160195993154  0.08321108091742335  1.0000
  H   H16       1.0  0.10299419412041821  0.5456852298398449  0.7574415762739015  1.0000
  H   H17       1.0  0.628105233837682  0.6834772354587786  0.9661371951999622  1.0000
  H   H18       1.0  0.7071332877278963  0.586812138251759  0.8960897228672166  1.0000
  Zn  Zn1       1.0  0.860852435534497  0.6025598443821003  0.5784280159436326  1.0000
  Zn  Zn2       1.0  0.035530119456101295  0.6073483714712026  0.5800718815783612  1.0000
  C   C26       1.0  0.9482073410244228  0.5991201083624287  0.816479664671933  1.0000
  C   C27       1.0  0.948177110990021  0.6107899792119091  0.342020381726849  1.0000
  C   C28       1.0  0.9466800756360865  0.8683280945476514  0.5745713289718803  1.0000
  C   C29       1.0  0.9497043267093851  0.34158025884892246  0.5839287828468103  1.0000
  O   O4        1.0  0.014450165217950282  0.6145109326225862  0.3910429194680107  1.0000
  O   O5        1.0  0.014510613398894144  0.599032448497518  0.7687044069400852  1.0000
  O   O6        1.0  0.013276433564021197  0.816421276934122  0.5733617087417495  1.0000
  O   O7        1.0  0.015684285395741075  0.3971221129044125  0.586385519731695  1.0000
  O   O8        1.0  0.8806982099859283  0.8127861013163735  0.572114377222499  1.0000
  O   O9        1.0  0.881932379880844  0.5953990054250163  0.7674570094331257  1.0000
  O   O10       1.0  0.8818719321659289  0.6108774398909513  0.3897939601690372  1.0000
  O   O11       1.0  0.8831060523918725  0.3934886098218302  0.5851366577995729  1.0000
