data_image0
_chemical_formula_structural       NC9NC3SH6C12H9C6OCH7Zn2C4O8
_chemical_formula_sum              "N2 C35 S1 H22 O9 Zn2"
_cell_length_a       16.77567553997237
_cell_length_b       10.299137764757564
_cell_length_c       9.273891588657152
_cell_angle_alpha    86.05603520339396
_cell_angle_beta     90.06962488754225
_cell_angle_gamma    90.9119803869589

_space_group_name_H-M_alt    "P 1"
_space_group_IT_number       1

loop_
  _space_group_symop_operation_xyz
  'x, y, z'

loop_
  _atom_site_type_symbol
  _atom_site_label
  _atom_site_symmetry_multiplicity
  _atom_site_fract_x
  _atom_site_fract_y
  _atom_site_fract_z
  _atom_site_occupancy
  N   N1        1.0  0.7558707301697366  0.4272188945520531  0.4174028826376912  1.0000
  C   C1        1.0  0.7009910680018565  0.4769260484317295  0.4635611058723843  1.0000
  C   C2        1.0  0.6328846180056458  0.5386093360697022  0.5208399292002853  1.0000
  C   C3        1.0  0.6347153516939749  0.627563445189887  0.6263162005287645  1.0000
  C   C4        1.0  0.5589804946330276  0.6713246331925979  0.6612796691916352  1.0000
  C   C5        1.0  0.4972052875781473  0.6166376356874548  0.5829201387885417  1.0000
  C   C6        1.0  0.4106834433803711  0.6428026401266497  0.5949571708422501  1.0000
  C   C7        1.0  0.3540474816242886  0.5626818084707237  0.5302857137889274  1.0000
  C   C8        1.0  0.2723784880105737  0.5868266420652923  0.5411505269810122  1.0000
  C   C9        1.0  0.2150792142506942  0.5040243928301111  0.47493107592920714  1.0000
  N   N2        1.0  0.1690275941465562  0.43746325266528846  0.4217004213046165  1.0000
  C   C10       1.0  0.24651624713198686  0.6914044264701149  0.6165079005006879  1.0000
  C   C11       1.0  0.3020621639917346  0.771679920151815  0.6806670039869223  1.0000
  C   C12       1.0  0.38357258029330926  0.7479010253958268  0.6701290658190009  1.0000
  S   S1        1.0  0.5381116005350975  0.5136292680288965  0.47072570737209096  1.0000
  H   H1        1.0  0.6889695715980313  0.6598399688652531  0.6771056171401564  1.0000
  H   H2        1.0  0.5504803514816287  0.7398938960583887  0.742820636626367  1.0000
  H   H3        1.0  0.373005216182389  0.4809031082661219  0.47209405639224  1.0000
  H   H4        1.0  0.18350885613325574  0.7109381100444149  0.6254798925417089  1.0000
  H   H5        1.0  0.2819247235260923  0.8528441697074165  0.7385064491525998  1.0000
  H   H6        1.0  0.42487491560993856  0.8129513559588621  0.7197902315734295  1.0000
  C   C13       1.0  0.962375761348533  0.050940642940020986  0.4197080374571791  1.0000
  C   C14       1.0  0.9628084684606183  0.05957068127508847  0.26794070293199224  1.0000
  C   C15       1.0  0.9631071497358782  0.9468154246355636  0.1908340074978947  1.0000
  C   C16       1.0  0.9629672273874369  0.8243162057564594  0.2675459914148244  1.0000
  C   C17       1.0  0.9625301436698901  0.8137318216647903  0.4194078663107146  1.0000
  C   C18       1.0  0.9622384380473997  0.9275540531874717  0.4945539778618812  1.0000
  C   C19       1.0  0.9635639669767252  0.9569900427009237  0.03027915216048237  1.0000
  C   C20       1.0  0.011883994382571924  0.8752431712361033  0.9532413000872779  1.0000
  C   C21       1.0  0.012214912094061338  0.8850683972979841  0.802111193426239  1.0000
  C   C22       1.0  0.9644310639638786  0.9762588196521205  0.7263125329590582  1.0000
  C   C23       1.0  0.9162166094597398  0.057878843283027066  0.8014900902952626  1.0000
  C   C24       1.0  0.9156852357041818  0.04854355158737357  0.9526190858296449  1.0000
  H   H7        1.0  0.9640174496239138  0.15425093711015703  0.2093514310158473  1.0000
  H   H8        1.0  0.9620976833923152  0.7370471402691547  0.20866154233928036  1.0000
  H   H9        1.0  0.9619024986442576  0.9201819229688548  0.6116155828475255  1.0000
  H   H10       1.0  0.9611982497431135  0.5864502164756812  0.7060339164503004  1.0000
  H   H11       1.0  0.05013562489370815  0.8049840781598613  0.009822109181563116  1.0000
  H   H12       1.0  0.04972112485088731  0.8221118296706387  0.7437303198507097  1.0000
  H   H13       1.0  0.9647648631394724  0.9836746915166679  0.6093282923332101  1.0000
  H   H14       1.0  0.8790449563645796  0.12826782062280012  0.7426245840503549  1.0000
  H   H15       1.0  0.8771125127412465  0.11166250049946115  0.008694302016892802  1.0000
  C   C25       1.0  0.9637582788351423  0.42892884772157647  0.9962975500499253  1.0000
  C   C26       1.0  0.0290565160298748  0.4854057642475396  0.06552876653075601  1.0000
  C   C27       1.0  0.08983466190931022  0.5514689293652935  0.986325682763966  1.0000
  C   C28       1.0  0.08553192555881961  0.5613860118405725  0.8348363477916392  1.0000
  C   C29       1.0  0.021908413632059975  0.5041642054111175  0.7642806647559692  1.0000
  C   C30       1.0  0.9611476153101167  0.4357435708029205  0.8428183132436615  1.0000
  O   O1        1.0  0.15295539772967626  0.6062927490499983  0.062167789685621866  1.0000
  C   C31       1.0  0.2186184257949566  0.6762735674777882  0.9957473901029469  1.0000
  H   H16       1.0  0.7741166213804583  0.34445584307107713  0.1053737316169534  1.0000
  H   H17       1.0  0.13146610495617694  0.6121203067119438  0.7703723888108208  1.0000
  H   H18       1.0  0.02126650521207241  0.510842061728199  0.6471901632110968  1.0000
  H   H19       1.0  0.8346806513065985  0.373752810174886  0.5660834641364416  1.0000
  H   H20       1.0  0.19723637893975576  0.7636334855971934  0.931094626170387  1.0000
  H   H21       1.0  0.25184619908230665  0.6126388043554388  0.9257058546788262  1.0000
  H   H22       1.0  0.2594337608008771  0.708329995499443  0.08100320628339897  1.0000
  Zn  Zn1       1.0  0.875098852909623  0.43017179445535897  0.41865139307385135  1.0000
  Zn  Zn2       1.0  0.04979942779330804  0.4344998528192816  0.4204637516627383  1.0000
  C   C32       1.0  0.9616382741583156  0.42928132876708364  0.6828097990654693  1.0000
  C   C33       1.0  0.9632619141648626  0.4353920056643313  0.15630550628511153  1.0000
  C   C34       1.0  0.9625145775220462  0.6695017133982257  0.4137209098302208  1.0000
  C   C35       1.0  0.962385550635219  0.195170059742805  0.42539447236016925  1.0000
  O   O2        1.0  0.02939328620898585  0.43919790989296215  0.21069342095754506  1.0000
  O   O3        1.0  0.02810059723603042  0.4287593375481906  0.6297970081013071  1.0000
  O   O4        1.0  0.028807324934441603  0.6227403260630213  0.41250581639210004  1.0000
  O   O5        1.0  0.028686499232270627  0.24521692832224634  0.4279845039738694  1.0000
  O   O6        1.0  0.8962117218539517  0.6194547174767939  0.4111306401366688  1.0000
  O   O7        1.0  0.8955049947047451  0.42547528877674506  0.6284217543800159  1.0000
  O   O8        1.0  0.8967976890658148  0.43591380191258855  0.20931643434182987  1.0000
  O   O9        1.0  0.8960909017506954  0.24193281192215643  0.426607625424986  1.0000
