data_image0
_chemical_formula_structural       NC9NC3SH6C7ONH7C7OCH10Zn2C4O8
_chemical_formula_sum              "N3 C31 S1 H23 O10 Zn2"
_cell_length_a       16.77567553997237
_cell_length_b       10.297852080636378
_cell_length_c       10.300835455316063
_cell_angle_alpha    85.57031430706687
_cell_angle_beta     90.414716717709
_cell_angle_gamma    90.87229915396684

_space_group_name_H-M_alt    "P 1"
_space_group_IT_number       1

loop_
  _space_group_symop_operation_xyz
  'x, y, z'

loop_
  _atom_site_type_symbol
  _atom_site_label
  _atom_site_symmetry_multiplicity
  _atom_site_fract_x
  _atom_site_fract_y
  _atom_site_fract_z
  _atom_site_occupancy
  N   N1        1.0  0.7501087743641017  0.43983045380348695  0.5747304915741269  1.0000
  C   C1        1.0  0.6953584453524099  0.48917774523025404  0.6163317574899341  1.0000
  C   C2        1.0  0.6274124876899027  0.550414471143086  0.667955745629699  1.0000
  C   C3        1.0  0.6295492035301415  0.6385441088179966  0.7630103588107398  1.0000
  C   C4        1.0  0.5539097223338866  0.6820332448009844  0.7945241881734174  1.0000
  C   C5        1.0  0.4919023654530584  0.6279597509301393  0.7239109804297252  1.0000
  C   C6        1.0  0.4054086512704884  0.6540320630627401  0.7347642392558256  1.0000
  C   C7        1.0  0.3485959248774774  0.5744145142175423  0.6764738192354753  1.0000
  C   C8        1.0  0.26695209805593567  0.598475728340709  0.6862703233176259  1.0000
  C   C9        1.0  0.2094721523085702  0.5161887420160662  0.6265843827138229  1.0000
  N   N2        1.0  0.16327529877618188  0.450041797068541  0.5786057050267455  1.0000
  C   C10       1.0  0.24129107334946862  0.702468049228082  0.7541961873025549  1.0000
  C   C11       1.0  0.2970120197747366  0.7822443161774583  0.8120250807331612  1.0000
  C   C12       1.0  0.3784981792661821  0.7585464936988952  0.8025231858645923  1.0000
  S   S1        1.0  0.5324867634371356  0.5258276364455237  0.6227990902089791  1.0000
  H   H1        1.0  0.6839552370138353  0.670422708244998  0.8087778291907491  1.0000
  H   H2        1.0  0.5456462103436456  0.7499651128464329  0.8680083732460895  1.0000
  H   H3        1.0  0.3673987120586455  0.4930878251039617  0.6240204871486923  1.0000
  H   H4        1.0  0.1783046362816111  0.7219326458474754  0.7622858460795554  1.0000
  H   H5        1.0  0.2770286394990247  0.862959280072424  0.8641608910752661  1.0000
  H   H6        1.0  0.4199347573474766  0.82321066132007  0.8472855806910833  1.0000
  C   C13       1.0  0.9567808395581835  0.06350118789093173  0.5766766970163937  1.0000
  C   C14       1.0  0.9458442293171522  0.07274517371179277  0.4409245043395756  1.0000
  C   C15       1.0  0.9395945781800935  0.9603221473959163  0.3721911955568824  1.0000
  C   C16       1.0  0.9456426725829915  0.837487975396723  0.44087781808168686  1.0000
  C   C17       1.0  0.9566108366778946  0.8263612824367423  0.5766707851126178  1.0000
  C   C18       1.0  0.9619194954026828  0.9398806230503776  0.6437119458059486  1.0000
  C   C19       1.0  0.928241062670726  0.972691184829589  0.2287941204650119  1.0000
  O   O1        1.0  0.949528115743944  0.07631109834872363  0.16433234037414435  1.0000
  N   N3        1.0  0.8926104422956025  0.8699897326514325  0.16141903263779955  1.0000
  H   H7        1.0  0.9777397450776787  0.25331063188692743  0.833182232201745  1.0000
  H   H8        1.0  0.9414667888582181  0.16775499952499628  0.3885416671390407  1.0000
  H   H9        1.0  0.9433776697325117  0.7502232304719754  0.38877748523728783  1.0000
  H   H10       1.0  0.9703464881279589  0.9320025700121447  0.7483378288018947  1.0000
  H   H11       1.0  0.9786178927529937  0.5981074527205696  0.8330678283101758  1.0000
  H   H12       1.0  0.8885745280662017  0.8789440887770464  0.059926764580267466  1.0000
  H   H13       1.0  0.8653938317655488  0.7891895147166477  0.21105791828418893  1.0000
  C   C20       1.0  0.95662342756647  0.44486317273775455  0.19535654599711272  1.0000
  C   C21       1.0  0.029783198885764858  0.5131254352733805  0.19010599108157655  1.0000
  C   C22       1.0  0.06616818193701546  0.548870613046758  0.07023386881495819  1.0000
  C   C23       1.0  0.02997356946406349  0.5133027466241129  0.9548089907177708  1.0000
  C   C24       1.0  0.9567682938140015  0.44499928162676833  0.9579910078748162  1.0000
  C   C25       1.0  0.9204341542098915  0.4114571661427813  0.07869948791815995  1.0000
  C   C26       1.0  0.1455581540532771  0.618535497515516  0.06601285744563867  1.0000
  O   O2        1.0  0.20650671859466985  0.5252328509762356  0.07409311683888387  1.0000
  C   C27       1.0  0.28137879889076034  0.5894268498480932  0.07025512757952201  1.0000
  H   H14       1.0  0.9290482852014652  0.4173837785022556  0.524874447247629  1.0000
  H   H15       1.0  0.05877434061294417  0.5387482412716909  0.27911627597011957  1.0000
  H   H16       1.0  0.05909528096274808  0.539048457540581  0.8626456698412149  1.0000
  H   H17       1.0  0.8640140004653037  0.3588006116498039  0.08198664369211905  1.0000
  H   H18       1.0  0.8191149050476417  0.31486669011351265  0.7568478296364334  1.0000
  H   H19       1.0  0.14976293054775236  0.6820409622712197  0.14873457464178097  1.0000
  H   H20       1.0  0.1499476485395519  0.6820653397477169  0.9736222591542893  1.0000
  H   H21       1.0  0.3286248596579957  0.5149593950749525  0.07667624016706043  1.0000
  H   H22       1.0  0.28942993186955657  0.6499385972173624  0.1544731901199483  1.0000
  H   H23       1.0  0.2896245817873264  0.649997588598342  0.9769639994581264  1.0000
  Zn  Zn1       1.0  0.86933971349363  0.44277376028404297  0.5758563010507762  1.0000
  Zn  Zn2       1.0  0.044044359067923144  0.44708789630272827  0.5774905593006812  1.0000
  C   C28       1.0  0.9567402716700063  0.4397989471721613  0.8138367672028054  1.0000
  C   C29       1.0  0.9566457083198865  0.45006439545128907  0.3395102384312729  1.0000
  C   C30       1.0  0.9566379085328783  0.6821634607403293  0.5714974318787023  1.0000
  C   C31       1.0  0.956748012203391  0.20769831985024845  0.5818496424389605  1.0000
  O   O3        1.0  0.02295268972140696  0.45344149871970396  0.3885097270048181  1.0000
  O   O4        1.0  0.02303007401637847  0.43969519336052243  0.7660772690389519  1.0000
  O   O5        1.0  0.02294652099603222  0.6354075813553008  0.5703865328027391  1.0000
  O   O6        1.0  0.023036183106329496  0.2577291185272581  0.5842003653218295  1.0000
  O   O7        1.0  0.8903478298371008  0.6321325365887234  0.5691464944651052  1.0000
  O   O8        1.0  0.8904313824929476  0.43642170915602746  0.7648371614532117  1.0000
  O   O9        1.0  0.8903539979645606  0.45016796897404543  0.38726805823089117  1.0000
  O   O10       1.0  0.8904374913667839  0.25445557950847664  0.5829587939025818  1.0000
