data_image0
_chemical_formula_structural       NC5NC3BrH3C7NH5C7NH4Zn2C4O8
_chemical_formula_sum              "N4 C26 Br1 H12 Zn2 O8"
_cell_length_a       13.839083392302014
_cell_length_b       9.275154477615127
_cell_length_c       9.275157849593905
_cell_angle_alpha    86.33461140486662
_cell_angle_beta     89.74163777479679
_cell_angle_gamma    89.45968127068964

_space_group_name_H-M_alt    "P 1"
_space_group_IT_number       1

loop_
  _space_group_symop_operation_xyz
  'x, y, z'

loop_
  _atom_site_type_symbol
  _atom_site_label
  _atom_site_symmetry_multiplicity
  _atom_site_fract_x
  _atom_site_fract_y
  _atom_site_fract_z
  _atom_site_occupancy
  N   N1        1.0  0.904343400595323  0.5632524220309432  0.4165456035427286  1.0000
  C   C1        1.0  0.8327553881567094  0.4996408227323457  0.4187572386655364  1.0000
  C   C2        1.0  0.7435619124683455  0.4204859980270377  0.42150911975073857  1.0000
  C   C3        1.0  0.6555090293210004  0.49665012757727856  0.41886140681777095  1.0000
  C   C4        1.0  0.5679491493388731  0.42195802699269436  0.42145788724013045  1.0000
  C   C5        1.0  0.4776785275724291  0.5004724441389983  0.41872830978940057  1.0000
  N   N2        1.0  0.40511263590184166  0.5635918783818232  0.416533746492181  1.0000
  C   C6        1.0  0.568378348638389  0.270790441086312  0.4267129523369158  1.0000
  C   C7        1.0  0.6559869761813769  0.1945051000572251  0.42936478763099517  1.0000
  C   C8        1.0  0.7437475359623923  0.26848341256011854  0.42679314092517706  1.0000
  Br  Br1       1.0  0.8618675824473712  0.15844485943296882  0.430618519077794  1.0000
  H   H1        1.0  0.6551213463427085  0.6137922108736842  0.41478897674140486  1.0000
  H   H2        1.0  0.5010672331577054  0.21196553105918148  0.42875762519651195  1.0000
  H   H3        1.0  0.6556098399277638  0.07761210226882631  0.43342818128726046  1.0000
  C   C9        1.0  0.15753396964336575  0.14001868310050125  0.414871918158108  1.0000
  C   C10       1.0  0.13140400064669855  0.22195639115882915  0.28780436096392514  1.0000
  C   C11       1.0  0.09739361731904951  0.1547360673624627  0.1674679805325947  1.0000
  C   C12       1.0  0.08895146142619748  0.004660991714434016  0.17278193929142538  1.0000
  C   C13       1.0  0.11598596032588238  0.9214883292613176  0.2969530572794108  1.0000
  C   C14       1.0  0.15193135088035592  0.9868146435594514  0.41821992145064435  1.0000
  C   C15       1.0  0.06998284481394257  0.24023997121952353  0.03886895073530595  1.0000
  N   N3        1.0  0.0479521954389941  0.30896952625652374  0.9355082711095931  1.0000
  H   H4        1.0  0.17517541262463832  0.22010836373843534  0.7686273482515729  1.0000
  H   H5        1.0  0.13536341788936768  0.33887729604709316  0.28352812466465727  1.0000
  H   H6        1.0  0.06229747516103634  0.9516257035077322  0.08029588536538924  1.0000
  H   H7        1.0  0.11091236718018928  0.8050160728260978  0.296826345954728  1.0000
  H   H8        1.0  0.16791387638968017  0.6903377941754156  0.6552460237637499  1.0000
  C   C16       1.0  0.15604178132682622  0.5593420019870172  0.993331984176337  1.0000
  C   C17       1.0  0.23901582255515175  0.6064018464816696  0.06321188531293531  1.0000
  C   C18       1.0  0.3169581270738515  0.6647959225648195  0.9835625313840378  1.0000
  C   C19       1.0  0.31283338707627495  0.6770582741472422  0.8329521720345747  1.0000
  C   C20       1.0  0.23185368222008873  0.6288322292645827  0.7617260660068186  1.0000
  C   C21       1.0  0.15342356113062672  0.5674912634069549  0.8397598417491636  1.0000
  C   C22       1.0  0.4008659441934732  0.7138643433281742  0.05675794101680998  1.0000
  N   N4        1.0  0.46830634874408195  0.7533021234990027  0.11559468315084499  1.0000
  H   H9        1.0  0.9212579900633832  0.5105686014662998  0.10098294244325423  1.0000
  H   H10       1.0  0.372701586181726  0.722706227496325  0.7703082703276958  1.0000
  H   H11       1.0  0.23158976599192282  0.636412418849658  0.6446916015096242  1.0000
  H   H12       1.0  0.9963976171220401  0.5285997469999875  0.5622037119667693  1.0000
  Zn  Zn1       1.0  0.04885458745854754  0.5633465962687212  0.4165504955453332  1.0000
  Zn  Zn2       1.0  0.2606014827840557  0.5634860001996693  0.4165406350888206  1.0000
  C   C23       1.0  0.15395428514628362  0.5602069841320825  0.6797441181051198  1.0000
  C   C24       1.0  0.1555040848917848  0.5666274344492006  0.15334716106647606  1.0000
  C   C25       1.0  0.1530031521463293  0.8266968658924752  0.41184403426263505  1.0000
  C   C26       1.0  0.15645515686086456  0.30013582110141074  0.42124731489915845  1.0000
  O   O1        1.0  0.23568051392182965  0.569119104980925  0.20704594932612566  1.0000
  O   O2        1.0  0.234488858658515  0.5578200262562807  0.6260374268210853  1.0000
  O   O3        1.0  0.23371971884820344  0.7730139897170134  0.40970621965850906  1.0000
  O   O4        1.0  0.23644958174328545  0.35392515074643893  0.4233770484739226  1.0000
  O   O5        1.0  0.07300641624050752  0.7729074456758764  0.4097140821560217  1.0000
  O   O6        1.0  0.07377554482288362  0.5577152137564658  0.6260452193241909  1.0000
  O   O7        1.0  0.074967205842706  0.5690142255546313  0.20705200890808986  1.0000
  O   O8        1.0  0.07573627339420752  0.35382026204782324  0.4233832160664577  1.0000
