data_image0
_chemical_formula_structural       NC9NC3OH6C9H9C6NO2H3Zn2C4O8
_chemical_formula_sum              "N3 C31 O11 H18 Zn2"
_cell_length_a       15.78231758774541
_cell_length_b       9.272676604525723
_cell_length_c       9.273395971720358
_cell_angle_alpha    85.21432368177585
_cell_angle_beta     89.96902430017013
_cell_angle_gamma    90.18380166211226

_space_group_name_H-M_alt    "P 1"
_space_group_IT_number       1

loop_
  _space_group_symop_operation_xyz
  'x, y, z'

loop_
  _atom_site_type_symbol
  _atom_site_label
  _atom_site_symmetry_multiplicity
  _atom_site_fract_x
  _atom_site_fract_y
  _atom_site_fract_z
  _atom_site_occupancy
  N   N1        1.0  0.8086484839402351  0.5857778228109094  0.417260303015768  1.0000
  C   C1        1.0  0.7595692854909151  0.494381505457435  0.44362642635929556  1.0000
  C   C2        1.0  0.6986357978102484  0.38093645567414214  0.47635358374552467  1.0000
  C   C3        1.0  0.717445357219876  0.23843211302762476  0.5173758985611141  1.0000
  C   C4        1.0  0.6403012675451459  0.16936806522671802  0.5373397863426319  1.0000
  C   C5        1.0  0.5791518982822391  0.27483710935715067  0.5070244639539043  1.0000
  C   C6        1.0  0.4859440804140183  0.25533643043749943  0.5127313075366129  1.0000
  C   C7        1.0  0.43291483675477266  0.3749007261979236  0.4781816468050717  1.0000
  C   C8        1.0  0.3446125384131548  0.35891055392788607  0.4828690812812067  1.0000
  C   C9        1.0  0.2909076365778312  0.48195373056649576  0.44730501383527743  1.0000
  N   N2        1.0  0.247741696930213  0.5808645847924763  0.4187146608161425  1.0000
  C   C10       1.0  0.308657128354374  0.2231781076439538  0.522159857383703  1.0000
  C   C11       1.0  0.3607569137694514  0.1038609571562461  0.5566429308425116  1.0000
  C   C12       1.0  0.4488709194251368  0.11941186850055652  0.5520828539210292  1.0000
  O   O1        1.0  0.6163586032432594  0.399832766897602  0.47098853460477197  1.0000
  H   H1        1.0  0.7796181598265947  0.19037512633735854  0.5311535722237066  1.0000
  H   H2        1.0  0.6308893459612326  0.05580989980422003  0.5700463158233104  1.0000
  H   H3        1.0  0.46015276512885794  0.4805246915221779  0.4476012078287546  1.0000
  H   H4        1.0  0.24045969203825798  0.209635287308525  0.5261275114169569  1.0000
  H   H5        1.0  0.33279299295646647  0.9989590871610322  0.5870147769198634  1.0000
  H   H6        1.0  0.48739149926253106  0.024904186891049337  0.5794050467854401  1.0000
  C   C13       1.0  0.025800683222895193  0.1598786445477236  0.4161354616021735  1.0000
  C   C14       1.0  0.9917379914180393  0.2231240028981505  0.5355759787168443  1.0000
  C   C15       1.0  0.9654229391736274  0.13801021574299033  0.6585701875584121  1.0000
  C   C16       1.0  0.9723211843976268  0.9871045284187236  0.6662626781110652  1.0000
  C   C17       1.0  0.00499706559039814  0.9224365089864834  0.5457053777260814  1.0000
  C   C18       1.0  0.030597532732652186  0.006752451586018231  0.41985196192336255  1.0000
  C   C19       1.0  0.9429575661992955  0.9023849581426046  0.8048347162653955  1.0000
  C   C20       1.0  0.9001536987420853  0.7569179008104469  0.790320079334998  1.0000
  C   C21       1.0  0.9895441583894453  0.7627303487501982  0.8516962960505585  1.0000
  H   H7        1.0  0.044906904249894825  0.4609332990457416  0.17964822546575498  1.0000
  H   H8        1.0  0.9872675224586162  0.33969798493904224  0.535422401045017  1.0000
  H   H9        1.0  0.9402113306331191  0.19080226313838614  0.7491880494711294  1.0000
  H   H10       1.0  0.05301791714750582  0.9333356923396218  0.06646486588331824  1.0000
  H   H11       1.0  0.9188611642360014  0.9618390487007551  0.8956442355131012  1.0000
  H   H12       1.0  0.896357197122041  0.7188464112163708  0.6802592179918048  1.0000
  H   H13       1.0  0.850947408211799  0.7278263442580654  0.8734367910918207  1.0000
  H   H14       1.0  0.040021670592346854  0.728060542202667  0.7790033577934379  1.0000
  H   H15       1.0  0.9925800876227234  0.7370296603692897  0.9707035162113617  1.0000
  C   C22       1.0  0.028706336168388358  0.587739942975545  0.9940780268104548  1.0000
  C   C23       1.0  0.9533775531528866  0.6214973258872236  0.06455904310787952  1.0000
  C   C24       1.0  0.8777343855171666  0.6416228085420779  0.9879633164694211  1.0000
  C   C25       1.0  0.8752731152250754  0.6284021628956533  0.8386026394904642  1.0000
  C   C26       1.0  0.9505706165105047  0.5971160620139251  0.7666946381873325  1.0000
  C   C27       1.0  0.027691828418544555  0.5788911643332206  0.8419094020225417  1.0000
  N   N3        1.0  0.7968354004026997  0.6480783434237454  0.7602874725820024  1.0000
  O   O2        1.0  0.7233807647426966  0.6798913644026735  0.8309541861028418  1.0000
  O   O3        1.0  0.794069812558562  0.6362251818681421  0.6272308437508127  1.0000
  H   H16       1.0  0.21318721862426016  0.42412442214524376  0.11040512349415699  1.0000
  H   H17       1.0  0.8208491595776827  0.6661710612786529  0.04626236697212939  1.0000
  H   H18       1.0  0.1535066264384639  0.47293395861009446  0.5704200268392183  1.0000
  Zn  Zn1       1.0  0.9353612648453398  0.5843560298336983  0.4176883118202077  1.0000
  Zn  Zn2       1.0  0.12102880675173816  0.5822744857766831  0.418298401074861  1.0000
  C   C28       1.0  0.02784918153060632  0.5748193461133486  0.6816258837916365  1.0000
  C   C29       1.0  0.0285429276860516  0.591812964683903  0.15436098543698346  1.0000
  C   C30       1.0  0.029693324884595182  0.8467353751917154  0.4133969052394211  1.0000
  C   C31       1.0  0.026698711071821975  0.31989520307363883  0.42259003314137367  1.0000
  O   O4        1.0  0.09894791521353967  0.5923836820554873  0.20838490864058223  1.0000
  O   O5        1.0  0.09836155659132001  0.5726677014954011  0.6280645838884797  1.0000
  O   O6        1.0  0.09984977404328171  0.7922433288062087  0.4114677894016898  1.0000
  O   O7        1.0  0.0974596345937635  0.3728080668997879  0.4249815947263541  1.0000
  O   O8        1.0  0.9589303736441119  0.793822449422571  0.4110051179529348  1.0000
  O   O9        1.0  0.9574421660931892  0.5742485553556393  0.6276018430717702  1.0000
  O   O10       1.0  0.9580285265638964  0.5939645037807089  0.20792043200789645  1.0000
  O   O11       1.0  0.9565402457527328  0.37438887718187974  0.42451722627890776  1.0000
