data_image0
_chemical_formula_structural       NC9NC3OH6C7H8C6FH5Zn2C4O8
_chemical_formula_sum              "N2 C29 O9 H19 F1 Zn2"
_cell_length_a       15.78231758774541
_cell_length_b       9.274341958901593
_cell_length_c       9.275646106892307
_cell_angle_alpha    84.9204318453296
_cell_angle_beta     90.10253560025426
_cell_angle_gamma    89.0114341261544

_space_group_name_H-M_alt    "P 1"
_space_group_IT_number       1

loop_
  _space_group_symop_operation_xyz
  'x, y, z'

loop_
  _atom_site_type_symbol
  _atom_site_label
  _atom_site_symmetry_multiplicity
  _atom_site_fract_x
  _atom_site_fract_y
  _atom_site_fract_z
  _atom_site_occupancy
  N   N1        1.0  0.7873971043889844  0.5867368421337094  0.40971803971161536  1.0000
  C   C1        1.0  0.7394537895900818  0.4952990164587283  0.4365332824698529  1.0000
  C   C2        1.0  0.6799302102040482  0.3818024446746813  0.4698179061517158  1.0000
  C   C3        1.0  0.7005107095013973  0.23923340118862368  0.5115405035099503  1.0000
  C   C4        1.0  0.6242250106703415  0.17013797890042248  0.5318437615040215  1.0000
  C   C5        1.0  0.5617650118963373  0.27565489913019414  0.501010142068171  1.0000
  C   C6        1.0  0.46879966208754814  0.2561453465840162  0.5068127934718909  1.0000
  C   C7        1.0  0.4142843809971731  0.3757639555899288  0.47167560933215724  1.0000
  C   C8        1.0  0.3261809125662685  0.35976650543691147  0.4764416025682674  1.0000
  C   C9        1.0  0.2709467225482712  0.4828655775761206  0.4402729189777739  1.0000
  N   N2        1.0  0.2265514303643922  0.5818213648827049  0.41119653282837465  1.0000
  C   C10       1.0  0.29191258498852973  0.22397238669824593  0.5163993349002403  1.0000
  C   C11       1.0  0.34549534274408694  0.10460103420838607  0.551468716253827  1.0000
  C   C12       1.0  0.433415978549277  0.12015902380641563  0.5468322389484295  1.0000
  O   O1        1.0  0.5974182883555139  0.400707319508087  0.4643599818062092  1.0000
  H   H1        1.0  0.7632806519587518  0.1911546072822281  0.5255543471997106  1.0000
  H   H2        1.0  0.6162243301566414  0.05652825140861828  0.5651083249706761  1.0000
  H   H3        1.0  0.44020945220024904  0.4814359141548148  0.4405761610425811  1.0000
  H   H4        1.0  0.22388354374244393  0.2104234028845664  0.5204335245228133  1.0000
  H   H5        1.0  0.3188353044339878  0.9996514989773768  0.5823560233471847  1.0000
  H   H6        1.0  0.47311119064359713  0.02560840841022305  0.5746188273926476  1.0000
  C   C13       1.0  0.00967239285086241  0.1606705537944233  0.4107136269462448  1.0000
  C   C14       1.0  0.019649368696910807  0.2453114331755819  0.2785925516145997  1.0000
  C   C15       1.0  0.021196374322944855  0.1817326658883438  0.14784416671234601  1.0000
  C   C16       1.0  0.011873572867100446  0.03222531156639863  0.14606966903428265  1.0000
  C   C17       1.0  0.004535936649142425  0.9459583884632419  0.2771316404705437  1.0000
  C   C18       1.0  0.004284281314793192  0.007876333337546892  0.41021347569601163  1.0000
  C   C19       1.0  0.015411513527141318  0.9636909548764337  0.005570336383312613  1.0000
  H   H7        1.0  0.9392638702313311  0.2360544453621456  0.7448748224637416  1.0000
  H   H8        1.0  0.024451080525750957  0.36189184724137524  0.2761278563098346  1.0000
  H   H9        1.0  0.028771830722416514  0.24959150300164734  0.047665095473002905  1.0000
  H   H10       1.0  0.0009528104884946043  0.8295141832973683  0.2752769270224882  1.0000
  H   H11       1.0  0.9602520915378366  0.7083571967031511  0.6370909744768256  1.0000
  H   H12       1.0  0.08204277716133057  0.9336500087485143  0.9821519086174444  1.0000
  H   H13       1.0  0.9906742336349365  0.03974454099833169  0.9154144691538502  1.0000
  H   H14       1.0  0.9763186227495554  0.8648950117712854  0.011211984364720928  1.0000
  C   C20       1.0  0.006851011510670801  0.5887895489603212  0.9866200935413234  1.0000
  C   C21       1.0  0.08434352231099007  0.6029977332278496  0.05893325812250394  1.0000
  C   C22       1.0  0.16087182482606455  0.6036728535643912  0.9837442129084697  1.0000
  C   C23       1.0  0.16125254558481905  0.5900068628015716  0.8353770139297505  1.0000
  C   C24       1.0  0.0850725998319164  0.578189032152401  0.7611349407506052  1.0000
  C   C25       1.0  0.007105649692306093  0.5797573758010859  0.8343069716519951  1.0000
  F   F1        1.0  0.23499652627140488  0.6158658490888336  0.055421568457414416  1.0000
  H   H15       1.0  0.811105000802969  0.4737937383378912  0.09918067380050766  1.0000
  H   H16       1.0  0.08580231634251034  0.6101547901649369  0.17486133943620685  1.0000
  H   H17       1.0  0.22067099234497412  0.5899452235401861  0.7772613493138829  1.0000
  H   H18       1.0  0.08704879600699944  0.5712723692277502  0.6452125912760311  1.0000
  H   H19       1.0  0.8745448965964667  0.5082774611088461  0.5590564498720676  1.0000
  Zn  Zn1       1.0  0.9141275799725009  0.5853143996504979  0.4101530312055728  1.0000
  Zn  Zn2       1.0  0.09982100471012045  0.583231908206578  0.4107733469848891  1.0000
  C   C26       1.0  0.007092200635967716  0.5757179508903674  0.6740793894900945  1.0000
  C   C27       1.0  0.006858400280037369  0.5928301528257822  0.1468471360624961  1.0000
  C   C28       1.0  0.0052966755421191  0.8477977526796627  0.4045564221745086  1.0000
  C   C29       1.0  0.008653873055167738  0.32074861780914765  0.416370181139637  1.0000
  O   O2        1.0  0.07733060698119543  0.5933896284787687  0.20085620554566463  1.0000
  O   O3        1.0  0.07755701345346289  0.5735768286097591  0.6205407104900751  1.0000
  O   O4        1.0  0.07610615471845805  0.7932847041359434  0.4028990034040474  1.0000
  O   O5        1.0  0.07878140225347163  0.37368176513547513  0.4184978041942675  1.0000
  O   O6        1.0  0.9351671190610849  0.7948645434339039  0.402428573776918  1.0000
  O   O7        1.0  0.9366179667467432  0.5751584018473623  0.6200702028821139  1.0000
  O   O8        1.0  0.9363915601291967  0.5949711699371356  0.2003839626676709  1.0000
  O   O9        1.0  0.9378423554961365  0.3752632951232544  0.41802566953442244  1.0000
