data_image0
_chemical_formula_structural       NC9NC3OH6C6ClH5C6FH5Zn2C4O8
_chemical_formula_sum              "N2 C28 O9 H16 Cl1 F1 Zn2"
_cell_length_a       15.78231758774541
_cell_length_b       10.30297070629231
_cell_length_c       9.275646106892307
_cell_angle_alpha    84.95237181000358
_cell_angle_beta     90.10253560025426
_cell_angle_gamma    89.63144908567993

_space_group_name_H-M_alt    "P 1"
_space_group_IT_number       1

loop_
  _space_group_symop_operation_xyz
  'x, y, z'

loop_
  _atom_site_type_symbol
  _atom_site_label
  _atom_site_symmetry_multiplicity
  _atom_site_fract_x
  _atom_site_fract_y
  _atom_site_fract_z
  _atom_site_occupancy
  N   N1        1.0  0.797488544429545  0.42806257481359533  0.4106548968171544  1.0000
  C   C1        1.0  0.748963696946245  0.3457685653084157  0.4374161519358388  1.0000
  C   C2        1.0  0.6887182941181921  0.2436216924114012  0.47063376383168465  1.0000
  C   C3        1.0  0.7083920728329114  0.11530960566636139  0.5122721841431195  1.0000
  C   C4        1.0  0.6316669360984908  0.053123750998718355  0.5325346461238802  1.0000
  C   C5        1.0  0.5698780112199738  0.1480889404293111  0.5017633270480184  1.0000
  C   C6        1.0  0.47678858319322803  0.1305303503072779  0.5075544594257453  1.0000
  C   C7        1.0  0.4230340609057399  0.23818705445419597  0.4724879017067427  1.0000
  C   C8        1.0  0.3348288507715267  0.22378935519535137  0.47724444956763423  1.0000
  C   C9        1.0  0.280377554849485  0.33457847488320835  0.4411484473678773  1.0000
  N   N2        1.0  0.23661160860864713  0.4236386470940703  0.4121304876884577  1.0000
  C   C10       1.0  0.29969689025181306  0.10157469823326126  0.5171220049719327  1.0000
  C   C11       1.0  0.35252046172378215  0.9941405248599264  0.5521209058924643  1.0000
  C   C12       1.0  0.44054004432028077  0.008142709780778468  0.5474936144915694  1.0000
  O   O1        1.0  0.606326604815969  0.2606360728141517  0.46518700149228165  1.0000
  H   H1        1.0  0.770856240411253  0.07203870881898533  0.5262576406684167  1.0000
  H   H2        1.0  0.6229437124871804  0.9508750380063057  0.5657321309939884  1.0000
  H   H3        1.0  0.4496311920279591  0.33329177832941714  0.44145084531644607  1.0000
  H   H4        1.0  0.2315816792300369  0.08938061778003803  0.5211481948673791  1.0000
  H   H5        1.0  0.32519295801302833  0.8996859817197124  0.582946247626984  1.0000
  H   H6        1.0  0.47963392679223843  0.9230471906704216  0.5752243774116585  1.0000
  C   C13       1.0  0.017054106686100745  0.044603071882484135  0.4113989217138696  1.0000
  C   C14       1.0  0.10455452568404033  0.04031200770365562  0.4394929129534666  1.0000
  C   C15       1.0  0.14796989814431782  0.9212260532458154  0.4534323006765453  1.0000
  C   C16       1.0  0.10455452499179141  0.8052040396913991  0.43949284507174413  1.0000
  C   C17       1.0  0.017054115748005305  0.8070880128118818  0.41139900436634025  1.0000
  C   C18       1.0  0.9737304312748168  0.9273742977444639  0.3974889225812239  1.0000
  Cl  Cl1       1.0  0.2572787689505238  0.917369009610576  0.48852828977379037  1.0000
  H   H7        1.0  0.9840942311765224  0.3735225666755815  0.4008155992039415  1.0000
  H   H8        1.0  0.13935556880083722  0.12913061289163053  0.45066645212138456  1.0000
  H   H9        1.0  0.13935553526826516  0.7139294213953593  0.4506663483117024  1.0000
  H   H10       1.0  0.9062474527805086  0.9297553698055318  0.37582194748892594  1.0000
  H   H11       1.0  0.9840942271077738  0.4804945974282583  0.4008158716911292  1.0000
  C   C19       1.0  0.016955506499797268  0.42991001020320074  0.9875581626266468  1.0000
  C   C20       1.0  0.09453837950499744  0.44269737082263894  0.05987971614670773  1.0000
  C   C21       1.0  0.17107097569764695  0.4433049788774279  0.984691069544005  1.0000
  C   C22       1.0  0.1713647825317257  0.4310055922129781  0.8363158017537398  1.0000
  C   C23       1.0  0.0951096769122095  0.42036954897163503  0.7620667509723105  1.0000
  C   C24       1.0  0.017152701234320222  0.42178105767910434  0.8352397078709108  1.0000
  F   F1        1.0  0.24527322300943633  0.4542786703686468  0.05637562420384823  1.0000
  H   H12       1.0  0.8204781373859648  0.3264138229025937  0.10005084590415891  1.0000
  H   H13       1.0  0.09604269148822198  0.44913871943588535  0.17581202320186207  1.0000
  H   H14       1.0  0.23078283727419113  0.43095011690038265  0.778200100744201  1.0000
  H   H15       1.0  0.09704188401025626  0.4141445548812399  0.6461403176921316  1.0000
  H   H16       1.0  0.88413734517341  0.35744916072409927  0.5599469822017156  1.0000
  Zn  Zn1       1.0  0.9242099734637854  0.4267823771014354  0.41108904845833183  1.0000
  Zn  Zn2       1.0  0.10989015382654554  0.42490813556719753  0.41170813467213074  1.0000
  C   C25       1.0  0.01711356196067393  0.41814557674389774  0.675009740711177  1.0000
  C   C26       1.0  0.016988592984470863  0.4335465521972426  0.14778759084174276  1.0000
  C   C27       1.0  0.017048429035895873  0.6630172983682021  0.40564741748528044  1.0000
  C   C28       1.0  0.017053662567430017  0.18867327066896955  0.41714999080584514  1.0000
  O   O2        1.0  0.08746435787804985  0.43405008007932966  0.20179699065614654  1.0000
  O   O3        1.0  0.08756475751880943  0.4162185674781871  0.6214697975282328  1.0000
  O   O4        1.0  0.08751121231018022  0.613955574711746  0.40395781257310004  1.0000
  O   O5        1.0  0.0875178397014329  0.23631308381036797  0.41930886718104854  1.0000
  O   O6        1.0  0.9465822242253634  0.6153774294993382  0.4034883157305582  1.0000
  O   O7        1.0  0.9466357694122775  0.4176419828108209  0.6210002237286301  1.0000
  O   O8        1.0  0.9465353694241264  0.43547346681066235  0.20132568156774777  1.0000
  O   O9        1.0  0.9465888512692211  0.23773646021817618  0.41883766630402564  1.0000
