data_image0
_chemical_formula_structural       NC9NC3OH6C6H6C7F3H5Zn2C4O8
_chemical_formula_sum              "N2 C29 O9 H17 F3 Zn2"
_cell_length_a       15.78231758774541
_cell_length_b       10.681118228259551
_cell_length_c       9.272291681409872
_cell_angle_alpha    86.06048178151603
_cell_angle_beta     90.49794672891421
_cell_angle_gamma    89.63144314392761

_space_group_name_H-M_alt    "P 1"
_space_group_IT_number       1

loop_
  _space_group_symop_operation_xyz
  'x, y, z'

loop_
  _atom_site_type_symbol
  _atom_site_label
  _atom_site_symmetry_multiplicity
  _atom_site_fract_x
  _atom_site_fract_y
  _atom_site_fract_z
  _atom_site_occupancy
  N   N1        1.0  0.7911703497793168  0.3508130795699351  0.41243268289640467  1.0000
  C   C1        1.0  0.7427518914408067  0.27188198036502587  0.43916400144682277  1.0000
  C   C2        1.0  0.6826385449495636  0.17390930325132237  0.4723444543491744  1.0000
  C   C3        1.0  0.7024778568724064  0.050839166995352736  0.5139362956904376  1.0000
  C   C4        1.0  0.6258332733769388  0.9911951862971786  0.5341760910047959  1.0000
  C   C5        1.0  0.5639220173551475  0.08228151846571752  0.5034391943825338  1.0000
  C   C6        1.0  0.4708556119096347  0.0654418171302742  0.5092238485006244  1.0000
  C   C7        1.0  0.41696168282862767  0.1686982079435091  0.4741965180974681  1.0000
  C   C8        1.0  0.32877538229498543  0.15489011660479135  0.47894774503934734  1.0000
  C   C9        1.0  0.2741805870337878  0.2611507365359209  0.44289212174562875  1.0000
  N   N2        1.0  0.23029928014985332  0.34657055468164644  0.4139066230976116  1.0000
  C   C10       1.0  0.2938019546336958  0.03767196883574542  0.5187806912985988  1.0000
  C   C11       1.0  0.34676466392917327  0.934629094237373  0.5537404405883766  1.0000
  C   C12       1.0  0.43476585078293867  0.948057844494708  0.5491183255133987  1.0000
  O   O1        1.0  0.6002252020715622  0.1902298450330182  0.4669037850595621  1.0000
  H   H1        1.0  0.764997623533427  0.009335075653680969  0.5279061073269435  1.0000
  H   H2        1.0  0.6172420260986657  0.8931239365593975  0.5673364393899396  1.0000
  H   H3        1.0  0.4434354264168421  0.25991467180673733  0.443194181401255  1.0000
  H   H4        1.0  0.22570274968339363  0.02597721523403096  0.5228023772907189  1.0000
  H   H5        1.0  0.3195597060826483  0.8440362370116654  0.5845312994640908  1.0000
  H   H6        1.0  0.4739699766576654  0.8664407003541456  0.5768180673293384  1.0000
  C   C13       1.0  0.010738895623264133  0.9809418289409059  0.4131758600414581  1.0000
  C   C14       1.0  0.04841855289349173  0.9069338794746393  0.5277959305782847  1.0000
  C   C15       1.0  0.048418539661153615  0.7760516409262075  0.5277958646207352  1.0000
  C   C16       1.0  0.010738881659455357  0.7164322335058457  0.4131759223166871  1.0000
  C   C17       1.0  0.9730904150451145  0.7904292002568185  0.298650571014089  1.0000
  C   C18       1.0  0.9730904282038492  0.9213214586728193  0.298650629570822  1.0000
  H   H7        1.0  0.9726343368841349  0.28692693919497314  0.29726453016848975  1.0000
  H   H8        1.0  0.07795369597714275  0.9501055899356975  0.617640506866304  1.0000
  H   H9        1.0  0.07795359169185878  0.7216015621541082  0.6176404810499905  1.0000
  H   H10       1.0  0.9435514209198654  0.7473029810796328  0.2087942638176421  1.0000
  H   H11       1.0  0.9435513986598364  0.9757274202395748  0.20879425202020818  1.0000
  H   H12       1.0  0.9726346472084426  0.4249975823461977  0.29726414122111855  1.0000
  C   C19       1.0  0.008955382014844027  0.3454896732413617  0.9898091946473606  1.0000
  C   C20       1.0  0.06594204971586581  0.266124565366199  0.07021983753766525  1.0000
  C   C21       1.0  0.1275330369718295  0.19793650102827165  0.0016295406062831752  1.0000
  C   C22       1.0  0.13460256409464622  0.2087861694484081  0.8507609303158614  1.0000
  C   C23       1.0  0.07592755738209078  0.28401877979051937  0.7691744227676613  1.0000
  C   C24       1.0  0.012522371518286501  0.35188439192109433  0.8365425482963911  1.0000
  C   C25       1.0  0.1996544935707043  0.1323144637099789  0.7763939378543667  1.0000
  F   F1        1.0  0.27060256011906425  0.11048395598030991  0.8635512145541231  1.0000
  F   F2        1.0  0.22501579794417115  0.19473976162335216  0.6484066397461588  1.0000
  F   F3        1.0  0.16474421638271664  0.018534045488906692  0.7463176961902356  1.0000
  H   H13       1.0  0.8896335907171387  0.5997010949643922  0.06949935263814999  1.0000
  H   H14       1.0  0.06398639959736108  0.25866682719224454  0.18725996033561065  1.0000
  H   H15       1.0  0.1702175878272123  0.1374023408213516  0.06698614643704359  1.0000
  H   H16       1.0  0.0783433699796483  0.2873358291079857  0.652194738486406  1.0000
  H   H17       1.0  0.8204987973798678  0.47370665010389224  0.7225557157021796  1.0000
  Zn  Zn1       1.0  0.9178935047760548  0.3495854962573721  0.4128663488746085  1.0000
  Zn  Zn2       1.0  0.10357614630886225  0.34778800604299276  0.4134847425467232  1.0000
  C   C26       1.0  0.011846253581033306  0.34568672045599724  0.6764918378921168  1.0000
  C   C27       1.0  0.009625425748609695  0.35168834338797605  0.1498594017857231  1.0000
  C   C28       1.0  0.01071031237732667  0.57736551997402  0.4074308140949474  1.0000
  C   C29       1.0  0.010761303915659326  0.12000804048056857  0.41892050223520094  1.0000
  O   O2        1.0  0.08031589331524791  0.35308107213171436  0.20380839055338118  1.0000
  O   O3        1.0  0.08208461278564227  0.34292879036034796  0.6230117805974908  1.0000
  O   O4        1.0  0.08116638230294959  0.5300123714664162  0.40574309706639644  1.0000
  O   O5        1.0  0.08123405998165256  0.16599749978109535  0.4210769657755278  1.0000
  O   O6        1.0  0.9402355277388598  0.5313760031339709  0.4052741254271932  1.0000
  O   O7        1.0  0.9411537578938056  0.34429392603198905  0.6225427320873684  1.0000
  O   O8        1.0  0.9393850311777558  0.35444615107240196  0.20333760869543238  1.0000
  O   O9        1.0  0.9403031982960438  0.16736257058103576  0.42060629200791655  1.0000
