data_image0
_chemical_formula_structural       NC9NC3OH6C6H6C9H8Zn2C4O8
_chemical_formula_sum              "N2 C31 O9 H20 Zn2"
_cell_length_a       15.78231758774541
_cell_length_b       10.681118228259551
_cell_length_c       9.275155815604963
_cell_angle_alpha    86.05281192144676
_cell_angle_beta     90.4446892459172
_cell_angle_gamma    89.63144314392761

_space_group_name_H-M_alt    "P 1"
_space_group_IT_number       1

loop_
  _space_group_symop_operation_xyz
  'x, y, z'

loop_
  _atom_site_type_symbol
  _atom_site_label
  _atom_site_symmetry_multiplicity
  _atom_site_fract_x
  _atom_site_fract_y
  _atom_site_fract_z
  _atom_site_occupancy
  N   N1        1.0  0.7920365210680576  0.35098900597605365  0.4129211092827343  1.0000
  C   C1        1.0  0.7436034782137356  0.2720549445378255  0.4396442037527113  1.0000
  C   C2        1.0  0.683472028581075  0.17407859052943553  0.4728144484525294  1.0000
  C   C3        1.0  0.7032886481377879  0.05100384527006008  0.5143934937677295  1.0000
  C   C4        1.0  0.6266330218793442  0.9913576216972617  0.5346270621649809  1.0000
  C   C5        1.0  0.5647385358030365  0.08244735997759145  0.503899621967768  1.0000
  C   C6        1.0  0.4716689742700568  0.06560701761521459  0.5096824963958404  1.0000
  C   C7        1.0  0.4177941559805037  0.16886728998502165  0.4746659424002273  1.0000
  C   C8        1.0  0.32960526319372113  0.15505867213868973  0.4794157075933161  1.0000
  C   C9        1.0  0.2750301397570554  0.2613232875767548  0.4433711770687683  1.0000
  N   N2        1.0  0.2311646472618704  0.34674631775295706  0.414394596015746  1.0000
  C   C10       1.0  0.29461010281343186  0.03783611027834555  0.5192363989630966  1.0000
  C   C11       1.0  0.3475537381894789  0.9347893616124071  0.5541853926371416  1.0000
  C   C12       1.0  0.4355574468533926  0.9482186240698138  0.5495646995887693  1.0000
  O   O1        1.0  0.6010616541135966  0.19039973521935738  0.4673754530235543  1.0000
  H   H1        1.0  0.765800792917444  0.009498205862534137  0.5283590074922402  1.0000
  H   H2        1.0  0.6180236824286093  0.893282697292678  0.5677772085328889  1.0000
  H   H3        1.0  0.44428481433739647  0.26008718937480513  0.44367314379359124  1.0000
  H   H4        1.0  0.2265087036450318  0.02614091101315852  0.5232568476548927  1.0000
  H   H5        1.0  0.32033198095585  0.8441930922950769  0.584966778485936  1.0000
  H   H6        1.0  0.4747464598438921  0.8665984103800263  0.5772559193819569  1.0000
  C   C13       1.0  0.01160466143710126  0.9811176729917868  0.41366405778404824  1.0000
  C   C14       1.0  0.049221782389565316  0.9070970218927384  0.5282488646402428  1.0000
  C   C15       1.0  0.04922176919321375  0.7762147833516153  0.5282487987029851  1.0000
  C   C16       1.0  0.011604647439315219  0.7166080775498256  0.4136641200401179  1.0000
  C   C17       1.0  0.9740186654642474  0.7906177354372605  0.29917400327710575  1.0000
  C   C18       1.0  0.9740186785910334  0.9215099938467725  0.2991740618158236  1.0000
  H   H7        1.0  0.9735633435224043  0.2871156279696483  0.2977883888568398  1.0000
  H   H8        1.0  0.07870790658022786  0.9502587762194988  0.6180657996048011  1.0000
  H   H9        1.0  0.07870780230902885  0.72175474844077  0.6180657737964301  1.0000
  H   H10       1.0  0.9445286966323306  0.7475014736943338  0.20934534101321733  1.0000
  H   H11       1.0  0.944528674378738  0.9759259128555834  0.20934532921941273  1.0000
  H   H12       1.0  0.9735636540589202  0.42518627116397417  0.2977880000291311  1.0000
  C   C19       1.0  0.010052135230741666  0.3457124327049692  0.990427644158328  1.0000
  C   C20       1.0  0.9437658368454802  0.40737325501633403  0.058020099865330854  1.0000
  C   C21       1.0  0.8831550165463523  0.47730211255884103  0.9765319596965183  1.0000
  C   C22       1.0  0.8877064668265923  0.48703306649684674  0.825965435111804  1.0000
  C   C23       1.0  0.9522876340677562  0.4247158769577659  0.756658893097216  1.0000
  C   C24       1.0  0.01315714590696615  0.3520132485901817  0.8369004888744604  1.0000
  C   C25       1.0  0.8253828537550023  0.5599042160397389  0.7421589296048294  1.0000
  C   C26       1.0  0.7731980552625201  0.6209238260169325  0.6719557855664289  1.0000
  C   C27       1.0  0.7098811860681505  0.6949608000716807  0.5867646655796945  1.0000
  H   H13       1.0  0.20672678407834155  0.24277412626502226  0.10404541482222629  1.0000
  H   H14       1.0  0.9399590233351804  0.40393861542562304  0.17479886415812995  1.0000
  H   H15       1.0  0.8331523130774692  0.5248544835539302  0.03117721232385251  1.0000
  H   H16       1.0  0.9538532207127268  0.4305894925218683  0.6395178509015818  1.0000
  H   H17       1.0  0.14438616159880846  0.27822329337508855  0.5637584273500948  1.0000
  H   H18       1.0  0.7270997093154346  0.6983925541346807  0.47082345372167067  1.0000
  H   H19       1.0  0.6467733072973444  0.6509760099217627  0.6015791881938348  1.0000
  H   H20       1.0  0.7077367589130837  0.7916800091004224  0.6232622046312128  1.0000
  Zn  Zn1       1.0  0.9187594394581237  0.3497613746067594  0.41335464184051274  1.0000
  Zn  Zn2       1.0  0.1044417435974625  0.3479638158650329  0.41397284525941225  1.0000
  C   C28       1.0  0.012568355099553008  0.3458333851245883  0.6768990245996862  1.0000
  C   C29       1.0  0.010634856119871472  0.3518933668743829  0.150428610711135  1.0000
  C   C30       1.0  0.011579212668547223  0.5775420006626522  0.40792077934182025  1.0000
  C   C31       1.0  0.011623935472397706  0.12018324793844037  0.419406932597727  1.0000
  O   O2        1.0  0.08129588930308329  0.35328011725638153  0.20436100168835858  1.0000
  O   O3        1.0  0.08283589284018333  0.34308138142599787  0.6234354208253889  1.0000
  O   O4        1.0  0.08203620340679896  0.5301890391795527  0.4062335815514271  1.0000
  O   O5        1.0  0.08209551497927214  0.1661724682702781  0.42156273268669464  1.0000
  O   O6        1.0  0.9411056047120284  0.5315527228162396  0.4057647541946867  1.0000
  O   O7        1.0  0.9419052938596062  0.3444465690752889  0.6229665166213796  1.0000
  O   O8        1.0  0.9403652840225596  0.354645248366801  0.2038903646697996  1.0000
  O   O9        1.0  0.9411649100916586  0.1675375912279713  0.4210922037252185  1.0000
