data_image0
_chemical_formula_structural       NC9NC3OH6C6OCH8C6NCH9Zn2C4O8
_chemical_formula_sum              "N3 C30 O10 H23 Zn2"
_cell_length_a       15.78231758774541
_cell_length_b       9.273888216677433
_cell_length_c       9.273390368590327
_cell_angle_alpha    86.36751786552817
_cell_angle_beta     90.0787864382203
_cell_angle_gamma    89.05820199757643

_space_group_name_H-M_alt    "P 1"
_space_group_IT_number       1

loop_
  _space_group_symop_operation_xyz
  'x, y, z'

loop_
  _atom_site_type_symbol
  _atom_site_label
  _atom_site_symmetry_multiplicity
  _atom_site_fract_x
  _atom_site_fract_y
  _atom_site_fract_z
  _atom_site_occupancy
  N   N1        1.0  0.7888836323246088  0.5525547666333706  0.4182775407969017  1.0000
  C   C1        1.0  0.7408838435704302  0.46170822545733614  0.4446857706412384  1.0000
  C   C2        1.0  0.6812901661013231  0.3489455897421565  0.4774651918286674  1.0000
  C   C3        1.0  0.7017826511042788  0.2072966113533674  0.5185532946653857  1.0000
  C   C4        1.0  0.6254542593659026  0.13864885067128974  0.538548937969779  1.0000
  C   C5        1.0  0.5630593803484526  0.24348579310236862  0.5081848540803757  1.0000
  C   C6        1.0  0.47008194444348006  0.22410412698686755  0.5139005554512275  1.0000
  C   C7        1.0  0.4156405682920107  0.3429479953407615  0.4792959006364954  1.0000
  C   C8        1.0  0.3275271859275283  0.3270555782406168  0.4839905859990039  1.0000
  C   C9        1.0  0.2723690553249908  0.44935717333928316  0.44836993853912954  1.0000
  N   N2        1.0  0.22803490574984533  0.5476718615622924  0.4197341046979788  1.0000
  C   C10       1.0  0.29317492845170884  0.19214243432410116  0.5233436854353803  1.0000
  C   C11       1.0  0.34668393185935353  0.07354432371328401  0.5578816318020139  1.0000
  C   C12       1.0  0.43461420989024685  0.08900013562318332  0.5533145053701705  1.0000
  O   O1        1.0  0.5987898815138069  0.36773004792043484  0.4720913032513796  1.0000
  H   H1        1.0  0.7645229377222085  0.15952689455384417  0.5323532416653409  1.0000
  H   H2        1.0  0.6173834348558137  0.025772658761046285  0.571307866088892  1.0000
  H   H3        1.0  0.4416309542276716  0.447934287687757  0.44866697115769827  1.0000
  H   H4        1.0  0.22513749169344172  0.1786823578800456  0.5273174842348747  1.0000
  H   H5        1.0  0.3199590251276708  0.9692757771418885  0.5883016361487283  1.0000
  H   H6        1.0  0.4742509991712158  0.995062177238883  0.580680147285332  1.0000
  C   C13       1.0  0.010951584912434642  0.12660785071312342  0.4175414954762382  1.0000
  C   C14       1.0  0.9911840835071651  0.208722620049282  0.28873674238605895  1.0000
  C   C15       1.0  0.9642068725878311  0.1429902117597146  0.16556276911370715  1.0000
  C   C16       1.0  0.9568405243389955  0.992146394253099  0.17073016360947113  1.0000
  C   C17       1.0  0.9774951777374525  0.9087972000202692  0.29676536392270325  1.0000
  C   C18       1.0  0.005975082587942548  0.9736077415757062  0.42048258813998873  1.0000
  O   O2        1.0  0.9449522868816038  0.23131140068008604  0.040997170014737794  1.0000
  C   C19       1.0  0.9166916270119329  0.17929175460944546  0.9082623243056411  1.0000
  H   H7        1.0  0.017797959179666867  0.2069847807101859  0.7722566907143129  1.0000
  H   H8        1.0  0.9947636127085063  0.3255129985575509  0.28447642368001635  1.0000
  H   H9        1.0  0.9359397170666923  0.9379514330908713  0.07744309301396046  1.0000
  H   H10       1.0  0.9730920152595305  0.7923726407511246  0.2962708209760154  1.0000
  H   H11       1.0  0.014137106953840739  0.6771139411471335  0.6584100427979671  1.0000
  H   H12       1.0  0.8558820700824497  0.12202036134089012  0.9246718331096471  1.0000
  H   H13       1.0  0.9653470687824881  0.10568327267452471  0.8652050274806196  1.0000
  H   H14       1.0  0.9063983284713047  0.2722449759448089  0.8285415292585316  1.0000
  C   C20       1.0  0.008529041903269308  0.5456100857431256  0.9957507817387135  1.0000
  C   C21       1.0  0.08637338439360609  0.5418792197304523  0.06960145260484629  1.0000
  C   C22       1.0  0.1627814711609299  0.5515699159884759  0.9944768988786215  1.0000
  C   C23       1.0  0.16328584253169298  0.5653605749984778  0.8428987606105864  1.0000
  C   C24       1.0  0.08597228278944047  0.5666535536212065  0.768231755579631  1.0000
  C   C25       1.0  0.008397664327598253  0.5546055343397556  0.8422732881055479  1.0000
  N   N3        1.0  0.24111637708229727  0.5766958703428879  0.7624112399822023  1.0000
  C   C26       1.0  0.324780491601524  0.5759355804496942  0.8296775250072606  1.0000
  H   H15       1.0  0.8751876074563697  0.47782182666516393  0.2809066172551731  1.0000
  H   H16       1.0  0.08817363606737771  0.5348982189329003  0.18663123718238372  1.0000
  H   H17       1.0  0.2211732216156559  0.549593701059395  0.055786940824951614  1.0000
  H   H18       1.0  0.08656128910555827  0.5737527705905177  0.6511308902427304  1.0000
  H   H19       1.0  0.8115767832546229  0.4447596245787706  0.7457381650365646  1.0000
  H   H20       1.0  0.23831078979501297  0.5862843435490035  0.649559475764685  1.0000
  H   H21       1.0  0.32973638199341115  0.6683880934860387  0.8994855397751236  1.0000
  H   H22       1.0  0.3357224193330526  0.47273177720719217  0.8949077860136812  1.0000
  H   H23       1.0  0.3743755377306204  0.5862860450310743  0.7449895232225119  1.0000
  Zn  Zn1       1.0  0.9156132213431376  0.5511419018252661  0.41870617690235523  1.0000
  Zn  Zn2       1.0  0.10130535556695719  0.5490730809934483  0.4193172102138749  1.0000
  C   C27       1.0  0.008454345701538912  0.5471598947118894  0.6822424593258727  1.0000
  C   C28       1.0  0.008466248247614327  0.5530568866855445  0.15578108224965592  1.0000
  C   C29       1.0  0.006912292500514949  0.8134457479773902  0.414182990586879  1.0000
  C   C30       1.0  0.010008248253292162  0.28676930224573827  0.42384062160790603  1.0000
  O   O3        1.0  0.07891440828501661  0.5547647026491114  0.20972057510610154  1.0000
  O   O4        1.0  0.07894222537319173  0.5438807992274519  0.6287663079246897  1.0000
  O   O5        1.0  0.07769604772032435  0.7589100198930494  0.41230639243377465  1.0000
  O   O6        1.0  0.08016052252989692  0.33973549185774243  0.42618038235332434  1.0000
  O   O7        1.0  0.9367579910125775  0.7604794916684487  0.4118430045468142  1.0000
  O   O8        1.0  0.9380041584931703  0.5454520028846328  0.6283028492023812  1.0000
  O   O9        1.0  0.9379763420256139  0.5563358376349425  0.2092553832931454  1.0000
  O   O10       1.0  0.939222456310861  0.3413066176768218  0.4257152985679695  1.0000
