data_image0
_chemical_formula_structural       NC9NC3OH6C7OH6C6OCH8Zn2C4O8
_chemical_formula_sum              "N2 C30 O11 H20 Zn2"
_cell_length_a       15.78231758774541
_cell_length_b       9.274078303013075
_cell_length_c       9.273891588657152
_cell_angle_alpha    86.24854706109078
_cell_angle_beta     89.76748324947235
_cell_angle_gamma    89.04960325712263

_space_group_name_H-M_alt    "P 1"
_space_group_IT_number       1

loop_
  _space_group_symop_operation_xyz
  'x, y, z'

loop_
  _atom_site_type_symbol
  _atom_site_label
  _atom_site_symmetry_multiplicity
  _atom_site_fract_x
  _atom_site_fract_y
  _atom_site_fract_z
  _atom_site_occupancy
  N   N1        1.0  0.7937737349705192  0.5550467003658979  0.41753072696676385  1.0000
  C   C1        1.0  0.7456979796994305  0.46415792324623983  0.44397905937349  1.0000
  C   C2        1.0  0.6860100080815846  0.35134286184978314  0.476808257608039  1.0000
  C   C3        1.0  0.7063843245589749  0.20962816635610793  0.517958884043739  1.0000
  C   C4        1.0  0.6299984007455421  0.1409484270366521  0.5379848328565662  1.0000
  C   C5        1.0  0.5676908343437325  0.245833935909318  0.5075744766321402  1.0000
  C   C6        1.0  0.47469693196197654  0.22644313112866032  0.5132987381278429  1.0000
  C   C7        1.0  0.4203551177598804  0.3453423424256701  0.47864161869050514  1.0000
  C   C8        1.0  0.33222820801959285  0.3294424193952499  0.48334332354636045  1.0000
  C   C9        1.0  0.2771725652625635  0.451800981999408  0.44766868452220465  1.0000
  N   N2        1.0  0.2329208072343235  0.5501614669845292  0.41898944835799323  1.0000
  C   C10       1.0  0.2977627058670332  0.19446634070409163  0.5227559852973414  1.0000
  C   C11       1.0  0.3511723377970273  0.07581299399832853  0.5573462880585212  1.0000
  C   C12       1.0  0.43911577607166796  0.09127610784887241  0.5527723348997002  1.0000
  O   O1        1.0  0.6035251560983557  0.3701359176390955  0.4714260816790543  1.0000
  H   H1        1.0  0.7690849398849005  0.16183637575839893  0.5317799134308223  1.0000
  H   H2        1.0  0.621833357133855  0.02801984043203043  0.570793585240885  1.0000
  H   H3        1.0  0.4464336447895648  0.4503776173918288  0.4479663389084405  1.0000
  H   H4        1.0  0.22971381961190654  0.18099991081579314  0.5267357291254819  1.0000
  H   H5        1.0  0.32435989105533514  0.9714957989422466  0.5878123258572121  1.0000
  H   H6        1.0  0.47867382704244993  0.9972943842506937  0.5801794472229118  1.0000
  C   C13       1.0  0.015881277191203358  0.12909679766447146  0.4169759354757867  1.0000
  C   C14       1.0  0.9999307892994217  0.21156447550859814  0.2868030805402231  1.0000
  C   C15       1.0  0.9766425434089268  0.14559169321634213  0.16152942960145156  1.0000
  C   C16       1.0  0.9690798872839144  0.9950758796276625  0.16634801470718363  1.0000
  C   C17       1.0  0.9859928685388507  0.9115146906834489  0.29384141726742863  1.0000
  C   C18       1.0  0.010821389487279509  0.9761002942016659  0.4195567182029829  1.0000
  C   C19       1.0  0.959632633595106  0.2354881871419101  0.027321900351572337  1.0000
  O   O2        1.0  0.9382351205274828  0.1793993961249194  0.9131198038582902  1.0000
  H   H7        1.0  0.01209189599431304  0.20896895152160533  0.7718601224953268  1.0000
  H   H8        1.0  0.0037313475197731094  0.32835975811603113  0.283706775265103  1.0000
  H   H9        1.0  0.9508613681923701  0.9415683836663723  0.07112824086182812  1.0000
  H   H10       1.0  0.9815785211009722  0.7951196930104516  0.2930556818111152  1.0000
  H   H11       1.0  0.011981373443054721  0.6793479762079127  0.6579454473443316  1.0000
  H   H12       1.0  0.9654873098243567  0.35172397545376777  0.025826710810399556  1.0000
  C   C20       1.0  0.014762319193968088  0.5487635937853601  0.9949839486265866  1.0000
  C   C21       1.0  0.08379253160315336  0.6089060761411842  0.06397375569894614  1.0000
  C   C22       1.0  0.14795189062531988  0.679871105411056  0.984596963431982  1.0000
  C   C23       1.0  0.14330983637795902  0.6910524585246043  0.8331750654917367  1.0000
  C   C24       1.0  0.07606508589169825  0.6300169319575577  0.7628463132763361  1.0000
  C   C25       1.0  0.011940313943271441  0.5564334664476516  0.8415486423589971  1.0000
  O   O3        1.0  0.21467857460828754  0.7382636756090337  0.060206581129539805  1.0000
  C   C26       1.0  0.2840041050499249  0.8133866444664992  0.993593252385494  1.0000
  H   H13       1.0  0.8137373154617497  0.46242782254444226  0.10506179743507293  1.0000
  H   H14       1.0  0.08704734840894157  0.6038422521643458  0.18090309948024985  1.0000
  H   H15       1.0  0.19179390952372444  0.7455803999227073  0.7685828679378606  1.0000
  H   H16       1.0  0.07533695458109735  0.6374573421337892  0.6457855130635748  1.0000
  H   H17       1.0  0.8779208488679191  0.4925757904658241  0.5654604012756246  1.0000
  H   H18       1.0  0.26067507031768056  0.9112333507847936  0.9294194778876834  1.0000
  H   H19       1.0  0.31976356560910935  0.7414183316444618  0.9230798630691752  1.0000
  H   H20       1.0  0.3271743735177477  0.8473759919734216  0.07868591255946655  1.0000
  Zn  Zn1       1.0  0.9205020855704972  0.5536331506189964  0.4179599877307667  1.0000
  Zn  Zn2       1.0  0.10619245917974052  0.551563352854908  0.4185719348103658  1.0000
  C   C27       1.0  0.012506178791449774  0.5492384288864027  0.6815122949220145  1.0000
  C   C28       1.0  0.014190382349761999  0.5559598729418296  0.15501978132129368  1.0000
  C   C29       1.0  0.011792589442951362  0.8159466287830064  0.4133249122691587  1.0000
  C   C30       1.0  0.014903918429923113  0.28924994174351326  0.42320723533407856  1.0000
  O   O4        1.0  0.0844670017576079  0.5575832407378489  0.20896148027610706  1.0000
  O   O5        1.0  0.08316426425284296  0.5460430407455421  0.6280346313934708  1.0000
  O   O6        1.0  0.08258707688372824  0.7614133093153437  0.4114714238694597  1.0000
  O   O7        1.0  0.08504412606181355  0.34221298221187224  0.42552457954633716  1.0000
  O   O8        1.0  0.9416503553214288  0.7629835219698538  0.4110073427783909  1.0000
  O   O9        1.0  0.9422275325918859  0.5476149854095866  0.627570478726069  1.0000
  O   O10       1.0  0.9435302762301235  0.559155119443753  0.20849559445304844  1.0000
  O   O11       1.0  0.9441074002322428  0.34378485158177297  0.4250588017606556  1.0000
