data_image0
_chemical_formula_structural       NC9NC3OH6C7NH5C7F3H5Zn2C4O8
_chemical_formula_sum              "N3 C30 O9 H16 F3 Zn2"
_cell_length_a       15.78231758774541
_cell_length_b       10.302819778424748
_cell_length_c       9.272291681409872
_cell_angle_alpha    86.06048140812513
_cell_angle_beta     90.49794672891421
_cell_angle_gamma    89.6314472413266

_space_group_name_H-M_alt    "P 1"
_space_group_IT_number       1

loop_
  _space_group_symop_operation_xyz
  'x, y, z'

loop_
  _atom_site_type_symbol
  _atom_site_label
  _atom_site_symmetry_multiplicity
  _atom_site_fract_x
  _atom_site_fract_y
  _atom_site_fract_z
  _atom_site_occupancy
  N   N1        1.0  0.7911704151088795  0.4004121703238168  0.41243267375207115  1.0000
  C   C1        1.0  0.7427519529530136  0.3185828827522288  0.4391639928368136  1.0000
  C   C2        1.0  0.6826386017235042  0.21701284951497457  0.4723444464023909  1.0000
  C   C3        1.0  0.7024779076942886  0.08942382981793218  0.5139362885767784  1.0000
  C   C4        1.0  0.625833321314251  0.02758984425800981  0.5341760842948966  1.0000
  C   C5        1.0  0.5639220696976807  0.12202068006216904  0.5034391870560255  1.0000
  C   C6        1.0  0.47085566343774704  0.10456265936971287  0.5092238412881123  1.0000
  C   C7        1.0  0.4169617393505435  0.2116104134561656  0.47419651018596154  1.0000
  C   C8        1.0  0.32877543814909854  0.1972953172728804  0.4789477372213147  1.0000
  C   C9        1.0  0.27418064802699815  0.30745760961986046  0.4428921132082646  1.0000
  N   N2        1.0  0.2302993452742343  0.39601386860737775  0.413906613981998  1.0000
  C   C10       1.0  0.2938020048187712  0.07577315909919036  0.518780684274075  1.0000
  C   C11       1.0  0.3467647091307714  0.9689467611058762  0.5537404342614018  1.0000
  C   C12       1.0  0.4347658966339934  0.9828685875798977  0.5491183190955178  1.0000
  O   O1        1.0  0.6002252596348155  0.2339326481777484  0.46690377700229724  1.0000
  H   H1        1.0  0.764997672348041  0.04639579321377574  0.5279061004942462  1.0000
  H   H2        1.0  0.617242069292944  0.92591761901173  0.5673364333439341  1.0000
  H   H3        1.0  0.4434354873502723  0.3061761591244243  0.4431941728722584  1.0000
  H   H4        1.0  0.22570279930287393  0.06364899808796198  0.5228023703453626  1.0000
  H   H5        1.0  0.31955974690289146  0.8750275196341548  0.5845312937503848  1.0000
  H   H6        1.0  0.4739700185614589  0.8982546290017748  0.5768180614639649  1.0000
  C   C13       1.0  0.010738943064691586  0.016960004611376478  0.41317585340096885  1.0000
  C   C14       1.0  0.9618122285570636  0.008544842961154764  0.5392579645989111  1.0000
  C   C15       1.0  0.9374707057785653  0.8872556406996105  0.6019850072914317  1.0000
  C   C16       1.0  0.9618122969637387  0.7732438325025246  0.5392579695531396  1.0000
  C   C17       1.0  0.010738957211947842  0.7794560319892633  0.4131758962983585  1.0000
  C   C18       1.0  0.034946699108173274  0.901826700902656  0.3507936126522897  1.0000
  C   C19       1.0  0.8873137330369772  0.8797579745944236  0.7312376989225102  1.0000
  N   N3        1.0  0.8470039390299855  0.8737323338906876  0.8351144654042288  1.0000
  H   H7        1.0  0.029271186146070383  0.34746988896887365  0.3654184009154591  1.0000
  H   H8        1.0  0.9425160768037739  0.09608466737362997  0.5889831114390032  1.0000
  H   H9        1.0  0.9425161824123343  0.6799350619219073  0.5889830775440243  1.0000
  H   H10       1.0  0.07267725280323378  0.9074667327147822  0.2535636282683156  1.0000
  H   H11       1.0  0.02927126434067895  0.45448680846128786  0.3654185107509389  1.0000
  C   C20       1.0  0.008955447086950175  0.39489329941350104  0.9898091855390629  1.0000
  C   C21       1.0  0.0659421109496261  0.3126140672618356  0.0702198289666307  1.0000
  C   C22       1.0  0.12753309490780085  0.2419222768032634  0.0016295324968473857  1.0000
  C   C23       1.0  0.1346026225553416  0.2531703228351947  0.8507609221329795  1.0000
  C   C24       1.0  0.07592761948127147  0.3311653206048819  0.7691744140754913  1.0000
  C   C25       1.0  0.012522436899661482  0.40152281907120657  0.8365425391448054  1.0000
  C   C26       1.0  0.1996545483329879  0.17389073262304344  0.7763939301891596  1.0000
  F   F1        1.0  0.27060261382555595  0.15125865334327404  0.8635512070366982  1.0000
  F   F2        1.0  0.2250158557255384  0.23860815967209925  0.6484066316583639  1.0000
  F   F3        1.0  0.16474426564222178  0.05593253038824364  0.7463176892952657  1.0000
  H   H12       1.0  0.8896336680837074  0.6584388440935942  0.06949934180896844  1.0000
  H   H13       1.0  0.06398646047044187  0.3048824962104071  0.18725995181506105  1.0000
  H   H14       1.0  0.1702176428355613  0.17916542616550335  0.06698613873739467  1.0000
  H   H15       1.0  0.078343432239252  0.33460416518227043  0.652194729771781  1.0000
  H   H16       1.0  0.8204988686529496  0.5278181411670186  0.7225557057259167  1.0000
  Zn  Zn1       1.0  0.9178935700462478  0.39913951266525594  0.41286633973858455  1.0000
  Zn  Zn2       1.0  0.10357621149212282  0.3972760222902172  0.4134847334228675  1.0000
  C   C27       1.0  0.011846318662669608  0.39509758179844234  0.6764918287824859  1.0000
  C   C28       1.0  0.009625491120502705  0.4013195720373237  0.14985939263546455  1.0000
  C   C29       1.0  0.010710388663676795  0.6352831525173357  0.40743080341696647  1.0000
  C   C30       1.0  0.010761358082765682  0.1611324427276657  0.41892049465330294  1.0000
  O   O2        1.0  0.08031595875449815  0.40276343892918987  0.2038083813936944  1.0000
  O   O3        1.0  0.08208467773389616  0.3922383861560079  0.62301177150653  1.0000
  O   O4        1.0  0.08116645629915298  0.5861912933429243  0.4057430867089724  1.0000
  O   O5        1.0  0.08123411637295352  0.20881054081920425  0.4210769578823035  1.0000
  O   O6        1.0  0.9402356018010125  0.5876049947735407  0.4052741150605379  1.0000
  O   O7        1.0  0.9411538229080816  0.39365364681466075  0.6225427229871663  1.0000
  O   O8        1.0  0.9393850966830253  0.40417864077384524  0.20333759952650454  1.0000
  O   O9        1.0  0.9403032547533638  0.21022573422420088  0.42060628410545164  1.0000
