data_image0
_chemical_formula_structural       NC9NC3OH6C6ClH5C7OH6Zn2C4O8
_chemical_formula_sum              "N2 C29 O10 H17 Cl1 Zn2"
_cell_length_a       15.78231758774541
_cell_length_b       10.30297070629231
_cell_length_c       9.274081674992354
_cell_angle_alpha    86.07103647319707
_cell_angle_beta     89.75780300142802
_cell_angle_gamma    89.63144908567993

_space_group_name_H-M_alt    "P 1"
_space_group_IT_number       1

loop_
  _space_group_symop_operation_xyz
  'x, y, z'

loop_
  _atom_site_type_symbol
  _atom_site_label
  _atom_site_symmetry_multiplicity
  _atom_site_fract_x
  _atom_site_fract_y
  _atom_site_fract_z
  _atom_site_occupancy
  N   N1        1.0  0.8032205120754246  0.4000056590726031  0.4128142343475423  1.0000
  C   C1        1.0  0.7545991502176216  0.31818406948332734  0.43953913072801254  1.0000
  C   C2        1.0  0.6942339481865641  0.2166235914078105  0.4727116120629171  1.0000
  C   C3        1.0  0.7137575580817033  0.08904655311003751  0.5142934610208398  1.0000
  C   C4        1.0  0.6369593448478699  0.02721839431811146  0.534528393741577  1.0000
  C   C5        1.0  0.5752813966257193  0.12164037365240654  0.5037988816112342  1.0000
  C   C6        1.0  0.48217108289998  0.1041840151431559  0.5095821459623997  1.0000
  C   C7        1.0  0.4285430280322455  0.2112216847875743  0.4745632308441088  1.0000
  C   C8        1.0  0.340320663424539  0.19690795348652834  0.47931331629964236  1.0000
  C   C9        1.0  0.2859995476102284  0.3070598657546266  0.4432663553383749  1.0000
  N   N2        1.0  0.24233825454112704  0.39560778015057374  0.4142878204316276  1.0000
  C   C10       1.0  0.3050448846384735  0.07539726019456494  0.5191366927205141  1.0000
  C   C11       1.0  0.35774223269469974  0.9685809269694702  0.5540880429611281  1.0000
  C   C12       1.0  0.4457785036017137  0.9825014257136171  0.5494670383534324  1.0000
  O   O1        1.0  0.6118619026139767  0.23354181940683727  0.467272249877398  1.0000
  H   H1        1.0  0.7761712871592084  0.04602254334498479  0.5282599164361237  1.0000
  H   H2        1.0  0.6281163946216038  0.9255557208421941  0.5676807753959949  1.0000
  H   H3        1.0  0.4552520941915416  0.305778507471137  0.44356834243895427  1.0000
  H   H4        1.0  0.23691515317669312  0.0632742545950209  0.5231574124994152  1.0000
  H   H5        1.0  0.3303035574950466  0.8746705475945711  0.5848715043531334  1.0000
  H   H6        1.0  0.48477237517261834  0.8978954413664304  0.5771601253295118  1.0000
  C   C13       1.0  0.02278339100875071  0.016559290509726265  0.41355724838709373  1.0000
  C   C14       1.0  0.11018248912395245  0.012764173210816132  0.4416130701885115  1.0000
  C   C15       1.0  0.1535475892303706  0.893924292576744  0.45553351939219544  1.0000
  C   C16       1.0  0.11018248867651903  0.7776562040002348  0.441613002399015  1.0000
  C   C17       1.0  0.02278339977256949  0.7790442328981984  0.41355733092727  1.0000
  C   C18       1.0  0.9795098819614759  0.8990849613485453  0.39966614784551857  1.0000
  Cl  Cl1       1.0  0.2627298864726584  0.8906868029999504  0.49058182590227206  1.0000
  H   H7        1.0  0.9898616842153884  0.3452919565345931  0.4029883047338696  1.0000
  H   H8        1.0  0.14494323491018757  0.10178002633842032  0.45277142861159003  1.0000
  H   H9        1.0  0.1449432017520047  0.6865788330095834  0.45277132494294725  1.0000
  H   H10       1.0  0.9121050453382842  0.9010835434813343  0.37802861023183554  1.0000
  H   H11       1.0  0.9898616791639158  0.4522639920975212  0.4029885768508472  1.0000
  C   C19       1.0  0.024213371061708733  0.39438411280573904  0.9902923335618703  1.0000
  C   C20       1.0  0.0930277864694895  0.4501970100949573  0.05904933551060032  1.0000
  C   C21       1.0  0.15704389256724194  0.5156356806950306  0.9787812068600497  1.0000
  C   C22       1.0  0.15222839640332753  0.5256137075928593  0.8276423460088198  1.0000
  C   C23       1.0  0.08518951937712993  0.4690427767492311  0.7576884749922046  1.0000
  C   C24       1.0  0.021353442802065636  0.40121936334536534  0.8368221508882354  1.0000
  C   C25       1.0  0.2278339843251187  0.574013226496656  0.054463688913406916  1.0000
  O   O2        1.0  0.28614582746617945  0.6339159732414978  0.9853196442217786  1.0000
  H   H12       1.0  0.8234559567738549  0.3120591614297574  0.10098743153807721  1.0000
  H   H13       1.0  0.09582748188427503  0.44534981382631944  0.1760980673319481  1.0000
  H   H14       1.0  0.200742701824125  0.5761174076220681  0.763197286153658  1.0000
  H   H15       1.0  0.08440360242493705  0.47575849114504365  0.6406120787045819  1.0000
  H   H16       1.0  0.8875281461438367  0.3404447869900278  0.5612887135262228  1.0000
  H   H17       1.0  0.23030415105637414  0.5657349210224141  0.1713791669959439  1.0000
  Zn  Zn1       1.0  0.9299403753432651  0.39873312549580975  0.41324779613574747  1.0000
  Zn  Zn2       1.0  0.1156183229737251  0.39686981277099354  0.41386604123826487  1.0000
  C   C26       1.0  0.02189213477166363  0.39475535143156315  0.6768099168897497  1.0000
  C   C27       1.0  0.02366859066485527  0.4008492057278674  0.15030406870506918  1.0000
  C   C28       1.0  0.02279845613875575  0.6348719849435303  0.4078135583449338  1.0000
  C   C29       1.0  0.022762205679188074  0.16073101366660203  0.4193005038838311  1.0000
  O   O3        1.0  0.09394957084384381  0.40230616856676793  0.20424008953854544  1.0000
  O   O4        1.0  0.09253642195066392  0.3918831945879899  0.6233427148682176  1.0000
  O   O5        1.0  0.09326733296734235  0.5857804344718898  0.40612624898662064  1.0000
  O   O6        1.0  0.0932185968329724  0.20840893773333224  0.42145644713722796  1.0000
  O   O7        1.0  0.9523400381212725  0.5871940011706802  0.40565739001822676  1.0000
  O   O8        1.0  0.9516091273604241  0.39329832047328894  0.6228737790473182  1.0000
  O   O9        1.0  0.9530222821645258  0.4037212352174868  0.20376942078647198  1.0000
  O   O10       1.0  0.9522913077851025  0.20982399597079682  0.42098588644951085  1.0000
