data_image0
_chemical_formula_structural       NC9NC3OH6C7H8C7F3H5Zn2C4O8
_chemical_formula_sum              "N2 C30 O9 H19 F3 Zn2"
_cell_length_a       15.78231758774541
_cell_length_b       9.274341958901593
_cell_length_c       9.272291681409872
_cell_angle_alpha    86.0326854769446
_cell_angle_beta     90.49794672891421
_cell_angle_gamma    89.0114341261544

_space_group_name_H-M_alt    "P 1"
_space_group_IT_number       1

loop_
  _space_group_symop_operation_xyz
  'x, y, z'

loop_
  _atom_site_type_symbol
  _atom_site_label
  _atom_site_symmetry_multiplicity
  _atom_site_fract_x
  _atom_site_fract_y
  _atom_site_fract_z
  _atom_site_occupancy
  N   N1        1.0  0.7812710024252764  0.5559735949937352  0.4115149601758932  1.0000
  C   C1        1.0  0.7334309856046071  0.46505449741898386  0.4382999033648278  1.0000
  C   C2        1.0  0.6740356256183974  0.3522018008280512  0.4715469174762288  1.0000
  C   C3        1.0  0.6947768491721926  0.21043986111723822  0.513222370874532  1.0000
  C   C4        1.0  0.6185693627787883  0.14173719568537768  0.5335026874401694  1.0000
  C   C5        1.0  0.5559905863909452  0.24665765423186814  0.5027039080912572  1.0000
  C   C6        1.0  0.4630475896208288  0.22726035121354649  0.5085000028570255  1.0000
  C   C7        1.0  0.4083969526765028  0.34619924812658076  0.47340252156673257  1.0000
  C   C8        1.0  0.3203118438580768  0.33029399384288216  0.4781631295246387  1.0000
  C   C9        1.0  0.2649383244324013  0.4526934000235967  0.4420353143143023  1.0000
  N   N2        1.0  0.2204310238684139  0.5510867184879327  0.412991782686682  1.0000
  C   C10       1.0  0.28619744190398017  0.19527283840605647  0.518075712085234  1.0000
  C   C11       1.0  0.3399152943228368  0.07657988639646818  0.553105467202343  1.0000
  C   C12       1.0  0.42781806943826584  0.09204818554917615  0.5484742288301414  1.0000
  O   O1        1.0  0.5915026786926215  0.3710010947143636  0.46609516024837405  1.0000
  H   H1        1.0  0.7576007759150328  0.16263215834283984  0.5272203797858455  1.0000
  H   H2        1.0  0.6106968243887263  0.028770955331377968  0.5667296640031672  1.0000
  H   H3        1.0  0.4342022222368547  0.45126960267561356  0.44233821373429216  1.0000
  H   H4        1.0  0.21818394120830373  0.18180189406931757  0.5221053433225202  1.0000
  H   H5        1.0  0.31337424044277173  0.972227851410905  0.5839578735450237  1.0000
  H   H6        1.0  0.4676203213395406  0.9980350884728995  0.5762294201443823  1.0000
  C   C13       1.0  0.0035501260994410533  0.12992656581534812  0.4125094224583943  1.0000
  C   C14       1.0  0.01301814366057652  0.21201162591771094  0.28053763578747404  1.0000
  C   C15       1.0  0.014061478895130985  0.14590359339428072  0.14993698849048087  1.0000
  C   C16       1.0  0.0047318416994732715  0.9963619122598689  0.14816449588527303  1.0000
  C   C17       1.0  0.9978990838745506  0.9126303205750571  0.2790783753828445  1.0000
  C   C18       1.0  0.9981600878751288  0.9771226701707361  0.4120098363482052  1.0000
  C   C19       1.0  0.00772854925799793  0.9251096628934639  0.00782391880869926  1.0000
  H   H7        1.0  0.9344288629767624  0.21177464656398182  0.7462930364491014  1.0000
  H   H8        1.0  0.017810360962582372  0.32854436162666034  0.278075725436284  1.0000
  H   H9        1.0  0.021251024355305903  0.21182451408537317  0.04987111341867134  1.0000
  H   H10       1.0  0.9943088129660025  0.7961502368608496  0.277225757646514  1.0000
  H   H11       1.0  0.9550018781378817  0.6819923706984167  0.6386309775580825  1.0000
  H   H12       1.0  0.0742696001626797  0.8946156984335876  0.9844319524208411  1.0000
  H   H13       1.0  0.9826439699251487  0.9994192267011077  0.917769922144863  1.0000
  H   H14       1.0  0.9686573912998995  0.8264228547816453  0.013459192076086701  1.0000
  C   C20       1.0  0.9990950469039853  0.5498416735547456  0.9888950885715286  1.0000
  C   C21       1.0  0.05666333672766011  0.4584226503861968  0.06935965095951602  1.0000
  C   C22       1.0  0.11875403585678379  0.3798782320590306  0.0008156800053233937  1.0000
  C   C23       1.0  0.12574405187773818  0.3923757402868491  0.8499396986082921  1.0000
  C   C24       1.0  0.06651770778668697  0.4790346251801212  0.7683020791210091  1.0000
  C   C25       1.0  0.002615173120123826  0.5572076174914489  0.835624097741881  1.0000
  C   C26       1.0  0.1913563993637415  0.30428956708292154  0.7756246599092336  1.0000
  F   F1        1.0  0.2624644493933097  0.2791434575978957  0.8627967679377999  1.0000
  F   F2        1.0  0.2162602239296243  0.376195974180898  0.6475949509633634  1.0000
  F   F3        1.0  0.15727995470158085  0.17322826107624834  0.7456257190030904  1.0000
  H   H15       1.0  0.877910283443024  0.8426625425033825  0.06841253902708955  1.0000
  H   H16       1.0  0.05476234016690973  0.44983223632184344  0.18640484043609362  1.0000
  H   H17       1.0  0.16188220743788806  0.3101501872972221  0.06621341186234853  1.0000
  H   H18       1.0  0.06890921160023833  0.4828554655534707  0.6513201412847875  1.0000
  H   H19       1.0  0.8096988323454885  0.6975321523081324  0.7215545008808064  1.0000
  Zn  Zn1       1.0  0.9080031536878939  0.5545595672138071  0.41194946015631007  1.0000
  Zn  Zn2       1.0  0.09369896801290056  0.5524890754832081  0.41256907501708096  1.0000
  C   C27       1.0  0.001984474422251248  0.5500686481580992  0.6755775979452798  1.0000
  C   C28       1.0  0.9997196640795968  0.5569817932486403  0.1489410844237291  1.0000
  C   C29       1.0  0.9991506899375729  0.816934656506686  0.40635917494803286  1.0000
  C   C30       1.0  0.0025533965451105534  0.29011405317697414  0.41815958509466555  1.0000
  O   O2        1.0  0.07039992512261417  0.5585860486286189  0.20288912699177541  1.0000
  O   O3        1.0  0.07224304494136957  0.5468918456303691  0.6220994143481691  1.0000
  O   O4        1.0  0.0699537843867768  0.7623895459862085  0.4047036289584882  1.0000
  O   O5        1.0  0.07268912179675513  0.34308835835799933  0.42028480406655966  1.0000
  O   O6        1.0  0.9290129365351296  0.7639602850470775  0.4042337308878028  1.0000
  O   O7        1.0  0.9313021857399779  0.5484643171223784  0.6216294383847654  1.0000
  O   O8        1.0  0.929459059091316  0.5601584547734195  0.2024174177190874  1.0000
  O   O9        1.0  0.9317482562769999  0.34466075512564154  0.41981320288974056  1.0000
