data_image0
_chemical_formula_structural       NC9NC3OH6C7H8C7OH6Zn2C4O8
_chemical_formula_sum              "N2 C30 O10 H20 Zn2"
_cell_length_a       15.78231758774541
_cell_length_b       9.274341958901593
_cell_length_c       9.274081674992354
_cell_angle_alpha    86.03521128040595
_cell_angle_beta     89.75780300142802
_cell_angle_gamma    89.0114341261544

_space_group_name_H-M_alt    "P 1"
_space_group_IT_number       1

loop_
  _space_group_symop_operation_xyz
  'x, y, z'

loop_
  _atom_site_type_symbol
  _atom_site_label
  _atom_site_symmetry_multiplicity
  _atom_site_fract_x
  _atom_site_fract_y
  _atom_site_fract_z
  _atom_site_occupancy
  N   N1        1.0  0.7933307638577791  0.5555444637471905  0.411897041983011  1.0000
  C   C1        1.0  0.7452873960349011  0.46463260215878543  0.4386755425305351  1.0000
  C   C2        1.0  0.6856396250731555  0.35178888729084723  0.4719145596643666  1.0000
  C   C3        1.0  0.7060644490304959  0.2100382062565842  0.5135799887740251  1.0000
  C   C4        1.0  0.6297029946906356  0.14134101957794432  0.5338554272704279  1.0000
  C   C5        1.0  0.5673580423061975  0.24625315779516366  0.5030640560197825  1.0000
  C   C6        1.0  0.4743710416466121  0.226857420599188  0.508858756638104  1.0000
  C   C7        1.0  0.41998686440485244  0.34578683588317394  0.473769717422329  1.0000
  C   C8        1.0  0.3318656131017278  0.32988286768374775  0.47852918030071256  1.0000
  C   C9        1.0  0.2767663756627196  0.4522725138893997  0.4424100549933818  1.0000
  N   N2        1.0  0.23247957328021043  0.550657986206861  0.4133735092704267  1.0000
  C   C10       1.0  0.29744819524772115  0.1948724946816811  0.5184321625998702  1.0000
  C   C11       1.0  0.3509001021403939  0.0761890060048298  0.5534534919327874  1.0000
  C   C12       1.0  0.4388380375680107  0.09165605402262256  0.5488233675225569  1.0000
  O   O1        1.0  0.6031480678299435  0.3705867083780361  0.4664641137596919  1.0000
  H   H1        1.0  0.7687821030393986  0.16223428506203263  0.5275746307134082  1.0000
  H   H2        1.0  0.6215781974498911  0.028383755533770705  0.567074411675532  1.0000
  H   H3        1.0  0.44602797385801607  0.4508487983700784  0.44271288155630684  1.0000
  H   H4        1.0  0.2294041016347907  0.18140263895492725  0.5224608245810751  1.0000
  H   H5        1.0  0.324124817121361  0.9718453058359383  0.5842984772781821  1.0000
  H   H6        1.0  0.4784295723536869  0.9976504550464526  0.5765718828194679  1.0000
  C   C13       1.0  0.015602337584931458  0.12949770322404897  0.4128912650653074  1.0000
  C   C14       1.0  0.02607228353895219  0.21154711098099943  0.2809512218590564  1.0000
  C   C15       1.0  0.028107137490929412  0.1454037965271957  0.15038198822355797  1.0000
  C   C16       1.0  0.018790957040172307  0.9958616365516606  0.14860992195990286  1.0000
  C   C17       1.0  0.010964302442309837  0.912165411417298  0.2794923124535478  1.0000
  C   C18       1.0  0.01021609221302433  0.9766936726156165  0.41239179912166657  1.0000
  C   C19       1.0  0.02285312875883183  0.9245714740005092  0.008303101311597061  1.0000
  H   H7        1.0  0.9439469928348599  0.2114359560389958  0.746594593347794  1.0000
  H   H8        1.0  0.03088319163801212  0.3280791816017472  0.2784899036765889  1.0000
  H   H9        1.0  0.036056382004382215  0.21129768429532736  0.05034018221719139  1.0000
  H   H10       1.0  0.007388096587801263  0.7956848272160614  0.2776401403314439  1.0000
  H   H11       1.0  0.9653373771955668  0.6816245951317847  0.6389584306490517  1.0000
  H   H12       1.0  0.08957177122213911  0.8940711901712692  0.9849167614449619  1.0000
  H   H13       1.0  0.998452238405471  0.9988567096068315  0.9182707655340265  1.0000
  H   H14       1.0  0.9837391878663603  0.8258861882649051  0.013937019114286464  1.0000
  C   C20       1.0  0.014363333881524332  0.5492983710143147  0.9893788240676757  1.0000
  C   C21       1.0  0.08278348266765967  0.6113120084744983  0.058099261047610984  1.0000
  C   C22       1.0  0.1463373249368778  0.6840208301190838  0.9777882612496258  1.0000
  C   C23       1.0  0.14145134321950237  0.695107402805025  0.826642863446188  1.0000
  C   C24       1.0  0.07481208762258618  0.6322515152501682  0.756726054012494  1.0000
  C   C25       1.0  0.011455120883599346  0.5568930089833375  0.8359041633838529  1.0000
  C   C26       1.0  0.21671503319772967  0.7488840451999568  0.053432498143813456  1.0000
  O   O2        1.0  0.2746037187043824  0.8154419090616754  0.9842492090808692  1.0000
  H   H15       1.0  0.8141874694151746  0.45782722480052307  0.10012785598073703  1.0000
  H   H16       1.0  0.08561741905164921  0.6059262950157611  0.17515116843569922  1.0000
  H   H17       1.0  0.189608886598581  0.7512219981068937  0.7621647168618786  1.0000
  H   H18       1.0  0.07397873034467373  0.6397133367655423  0.6396452580269663  1.0000
  H   H19       1.0  0.8780591405315537  0.48936645637729326  0.5604105415590341  1.0000
  H   H20       1.0  0.2192436785188958  0.7396860307732189  0.17035339963197993  1.0000
  Zn  Zn1       1.0  0.9200596164011925  0.5541305533479826  0.4123314374521898  1.0000
  Zn  Zn2       1.0  0.1057507266168034  0.5520602290071237  0.41295090327563266  1.0000
  C   C27       1.0  0.012039475133124089  0.5497108537677864  0.6758961641842289  1.0000
  C   C28       1.0  0.013772883568417882  0.5564817273368095  0.14938632370380622  1.0000
  C   C29       1.0  0.011249594036381039  0.8165041324182281  0.40674249688753306  1.0000
  C   C30       1.0  0.014562712056298777  0.28968671698427184  0.4185400686555085  1.0000
  O   O3        1.0  0.08404357164926668  0.5581005568488548  0.20332139003029015  1.0000
  O   O4        1.0  0.08270405145012916  0.5465196040409857  0.6224308438124666  1.0000
  O   O5        1.0  0.08206525737303072  0.7619585746499034  0.405087349110113  1.0000
  O   O6        1.0  0.08468230266823928  0.3426615962958959  0.4206647764438003  1.0000
  O   O7        1.0  0.94112797698251  0.7635291867672127  0.404617564065046  1.0000
  O   O8        1.0  0.9417667603012246  0.5480919485683928  0.6219609808934174  1.0000
  O   O9        1.0  0.9431062868297219  0.5596728355607972  0.20284979421887295  1.0000
  O   O10       1.0  0.943745017539574  0.344233865659882  0.42019328870225126  1.0000
