data_image0
_chemical_formula_structural       NC9NC3OH6C6BrH5C6NCH9Zn2C4O8
_chemical_formula_sum              "N3 C29 O9 H20 Br1 Zn2"
_cell_length_a       15.78231758774541
_cell_length_b       10.302969083221269
_cell_length_c       9.273390368590327
_cell_angle_alpha    86.16778746315522
_cell_angle_beta     90.0787864382203
_cell_angle_gamma    89.63144763104107

_space_group_name_H-M_alt    "P 1"
_space_group_IT_number       1

loop_
  _space_group_symop_operation_xyz
  'x, y, z'

loop_
  _atom_site_type_symbol
  _atom_site_label
  _atom_site_symmetry_multiplicity
  _atom_site_fract_x
  _atom_site_fract_y
  _atom_site_fract_z
  _atom_site_occupancy
  N   N1        1.0  0.7980055762227375  0.3976386347921075  0.41288635579189203  1.0000
  C   C1        1.0  0.7494720239777263  0.31585689123391636  0.43961004665639414  1.0000
  C   C2        1.0  0.6892158162978304  0.21434587234839664  0.4727810316352328  1.0000
  C   C3        1.0  0.7088760510885173  0.08683083131425673  0.5143610049454934  1.0000
  C   C4        1.0  0.6321443234839079  0.025032842229925967  0.5345950248830142  1.0000
  C   C5        1.0  0.570365407734138  0.11940900482603323  0.5038668988585748  1.0000
  C   C6        1.0  0.4772740959938278  0.10196126903478264  0.5096499022982361  1.0000
  C   C7        1.0  0.4235309799765959  0.2089467264816267  0.47463256685234256  1.0000
  C   C8        1.0  0.3353242226534269  0.19464007745593226  0.4793824380044964  1.0000
  C   C9        1.0  0.280884667854538  0.3047382447349236  0.44333710309413354  1.0000
  N   N2        1.0  0.2371281604274224  0.3932429529623709  0.41435987538765096  1.0000
  C   C10       1.0  0.3001792909632252  0.07318875971087624  0.5192040179956929  1.0000
  C   C11       1.0  0.35299147817174686  0.9664245379485351  0.5541537916094479  1.0000
  C   C12       1.0  0.4410125659133003  0.9803381468733893  0.5495329954822092  1.0000
  O   O1        1.0  0.6068258986856641  0.23125599046328205  0.4673419147700708  1.0000
  H   H1        1.0  0.7713356695548043  0.043827645077633814  0.5283268303971707  1.0000
  H   H2        1.0  0.6234103015703084  0.9234195979486575  0.567745911112931  1.0000
  H   H3        1.0  0.45013820667655313  0.30345733664575114  0.4436390766268352  1.0000
  H   H4        1.0  0.23206277032023723  0.061071748916944335  0.5232245563781319  1.0000
  H   H5        1.0  0.32565394774871037  0.8725600558614974  0.5849358643590619  1.0000
  H   H6        1.0  0.4800974282640881  0.8957734521308718  0.5772248332414898  1.0000
  C   C13       1.0  0.01757090284585683  0.014193310443517015  0.4136293942854623  1.0000
  C   C14       1.0  0.10541555032920003  0.010632524776933217  0.43821430427139685  1.0000
  C   C15       1.0  0.14899122366761297  0.8919283309898693  0.4504095559714876  1.0000
  C   C16       1.0  0.10541561688334111  0.7755501618966928  0.4382140310118916  1.0000
  C   C17       1.0  0.017570915882158644  0.7766783267566048  0.41362929877592935  1.0000
  C   C18       1.0  0.9740727918264761  0.8965967570500701  0.4014556281893853  1.0000
  Br  Br1       1.0  0.2684750656244179  0.8887394085263045  0.48384965597617513  1.0000
  H   H7        1.0  0.9845070262737625  0.34283521594257094  0.4043752187768881  1.0000
  H   H8        1.0  0.14038484341898805  0.09969853821255659  0.44800125069516605  1.0000
  H   H9        1.0  0.14038494318384243  0.6846175968668144  0.44800060178906875  1.0000
  H   H10       1.0  0.9063236212940539  0.8984048790380267  0.38249499275628107  1.0000
  H   H11       1.0  0.9845067834160497  0.44980124652463355  0.40437734774544554  1.0000
  C   C19       1.0  0.017610182738708513  0.3913869040788933  0.9903837118633501  1.0000
  C   C20       1.0  0.09543260474598747  0.3880283092050698  0.06424733801411131  1.0000
  C   C21       1.0  0.17189762862722113  0.39675205395103985  0.9890891337285135  1.0000
  C   C22       1.0  0.17248302620105993  0.4091666613103784  0.8374631079426522  1.0000
  C   C23       1.0  0.09517706327839237  0.41033062467960946  0.7627916130945813  1.0000
  C   C24       1.0  0.017531657390347233  0.3994847739680174  0.8368749818908103  1.0000
  N   N3        1.0  0.25038016061044077  0.41937090469721916  0.7569362259496306  1.0000
  C   C25       1.0  0.334039808091273  0.41868647761535005  0.8242051510512654  1.0000
  H   H12       1.0  0.8838704623765227  0.33036265430115286  0.27577493942762055  1.0000
  H   H13       1.0  0.09719183996159808  0.38174388263676895  0.1813013638407357  1.0000
  H   H14       1.0  0.23027776794776944  0.39497302856984473  0.05040603800300203  1.0000
  H   H15       1.0  0.09580778062481121  0.4167214716412253  0.6456660960076142  1.0000
  H   H16       1.0  0.8200653831577793  0.300599445955563  0.7407212943977508  1.0000
  H   H17       1.0  0.24763090983155833  0.42800262635338737  0.6440511661382438  1.0000
  H   H18       1.0  0.33953889776687207  0.5019139468681171  0.8936921281252124  1.0000
  H   H19       1.0  0.34437536796803503  0.32578049724727354  0.8897937831814988  1.0000
  H   H20       1.0  0.3836956677641232  0.42800415805914693  0.7394812076877417  1.0000
  Zn  Zn1       1.0  0.9247268640374747  0.39636674765228874  0.4133198980144961  1.0000
  Zn  Zn2       1.0  0.11040684302660075  0.39450435671758366  0.41393811522450785  1.0000
  C   C26       1.0  0.017544592348102794  0.3927820708954486  0.6768700078001786  1.0000
  C   C27       1.0  0.01759114232247394  0.39809065258839027  0.1503881536526297  1.0000
  C   C28       1.0  0.017567085961502027  0.6324975414353247  0.40788587197051385  1.0000
  C   C29       1.0  0.017568585342316423  0.15837362361325313  0.419372366112986  1.0000
  O   O2        1.0  0.08804933653177316  0.3996280602361548  0.2043217161857065  1.0000
  O   O3        1.0  0.08801320588777228  0.3898301682413736  0.6234052429283381  1.0000
  O   O4        1.0  0.08803041972970127  0.5834034661825251  0.4061986469756411  1.0000
  O   O5        1.0  0.0880320593398729  0.2060547711839671  0.42152820386042333  1.0000
  O   O6        1.0  0.9471015843607391  0.5848163338227887  0.4057298091600323  1.0000
  O   O7        1.0  0.9470843705221048  0.3912445949537815  0.6229363282634899  1.0000
  O   O8        1.0  0.9471205013832499  0.4010424251293385  0.20385106866866964  1.0000
  O   O9        1.0  0.9471032241778575  0.20746912782507088  0.42105766440281855  1.0000
