data_image0
_chemical_formula_structural       NC9NC3OH6C6BrH5C6H6Zn2C4O8
_chemical_formula_sum              "N2 C28 O9 H17 Br1 Zn2"
_cell_length_a       15.78231758774541
_cell_length_b       10.302969083221269
_cell_length_c       10.681121600428288
_cell_angle_alpha    85.56069838107055
_cell_angle_beta     90.08384876913414
_cell_angle_gamma    89.63144763104107

_space_group_name_H-M_alt    "P 1"
_space_group_IT_number       1

loop_
  _space_group_symop_operation_xyz
  'x, y, z'

loop_
  _atom_site_type_symbol
  _atom_site_label
  _atom_site_symmetry_multiplicity
  _atom_site_fract_x
  _atom_site_fract_y
  _atom_site_fract_z
  _atom_site_occupancy
  N   N1        1.0  0.7978583787443233  0.4128214797621437  0.6210053597535896  1.0000
  C   C1        1.0  0.7493273049985195  0.3307840886913096  0.6442247597028208  1.0000
  C   C2        1.0  0.6890741737746564  0.22895574538212626  0.6730460168726788  1.0000
  C   C3        1.0  0.708738264916302  0.1010429368088237  0.7091735875388914  1.0000
  C   C4        1.0  0.6320084139238205  0.03905138251323481  0.7267543103474352  1.0000
  C   C5        1.0  0.5702266482819315  0.13372150035026098  0.7000555788185654  1.0000
  C   C6        1.0  0.47713587288854703  0.11621844246849333  0.705080254132096  1.0000
  C   C7        1.0  0.42338950917478313  0.22353888712767644  0.6746547593530552  1.0000
  C   C8        1.0  0.33518319238027994  0.20918679929071993  0.6787817775313589  1.0000
  C   C9        1.0  0.2807402945426447  0.31962978795905195  0.6474630853704848  1.0000
  N   N2        1.0  0.23698109961116212  0.40841170176502484  0.6222856559896308  1.0000
  C   C10       1.0  0.3000419539581581  0.08735453536851101  0.7133815338716831  1.0000
  C   C11       1.0  0.35285738259716315  0.9802559727122759  0.743748326235339  1.0000
  C   C12       1.0  0.44087804178116463  0.9942137856747518  0.7397334574095389  1.0000
  O   O1        1.0  0.6066837517094598  0.24591789585678558  0.6683201341155722  1.0000
  H   H1        1.0  0.7711991786485571  0.05790614894670609  0.7213080673316654  1.0000
  H   H2        1.0  0.6232774666021874  0.9371210060794677  0.7555581043273443  1.0000
  H   H3        1.0  0.4499938613713138  0.31834599109291695  0.6477254609631913  1.0000
  H   H4        1.0  0.23192580620158193  0.07519906279764244  0.7168748570502224  1.0000
  H   H5        1.0  0.3255227070695564  0.8860970193124128  0.7704939304283975  1.0000
  H   H6        1.0  0.4799654724223238  0.9093841818117258  0.7637940506682368  1.0000
  C   C13       1.0  0.017423774280839854  0.02936904726581835  0.6216509632388028  1.0000
  C   C14       1.0  0.10527070190131704  0.025573074359630965  0.6430120417130918  1.0000
  C   C15       1.0  0.1488475062931398  0.906752216831058  0.653608123973648  1.0000
  C   C16       1.0  0.10527076843011507  0.7904907140934797  0.6430118042862414  1.0000
  C   C17       1.0  0.0174237873082832  0.7918540644925813  0.6216508802534821  1.0000
  C   C18       1.0  0.97392453420074  0.9118889520756087  0.6110735491642867  1.0000
  Br  Br1       1.0  0.2683344496651565  0.9032433955020233  0.6826632069817569  1.0000
  H   H7        1.0  0.9843590394266022  0.3580994812156133  0.6136102923814923  1.0000
  H   H8        1.0  0.1402409026852962  0.11454546268477483  0.6515156209696926  1.0000
  H   H9        1.0  0.1402410023899674  0.6994645275466792  0.6515150571549759  1.0000
  H   H10       1.0  0.906173605156736  0.913878457664774  0.5945992313148152  1.0000
  H   H11       1.0  0.9843587967663415  0.46506549143127096  0.6136121421773408  1.0000
  C   C19       1.0  0.017423800086607377  0.41061154666412025  0.25390569830615717  1.0000
  C   C20       1.0  0.9567760647836768  0.3390156019402968  0.19230639226069135  1.0000
  C   C21       1.0  0.9567760118812264  0.33901568571773244  0.06142425215354952  1.0000
  C   C22       1.0  0.01742373347602344  0.4106116109740614  0.9893961337882877  1.0000
  C   C23       1.0  0.07802141189114598  0.4821482220731932  0.05099471354662066  1.0000
  C   C24       1.0  0.07802140105035127  0.4821482020505785  0.18188701217806136  1.0000
  H   H12       1.0  0.0787547371458488  0.4830147250333008  0.5473422509976589  1.0000
  H   H13       1.0  0.9092375067581049  0.28289531665735534  0.24520462873161653  1.0000
  H   H14       1.0  0.9092374890618734  0.28289537794681485  0.016700599454483767  1.0000
  H   H15       1.0  0.1255661778516124  0.5382759031314979  0.9981408305425892  1.0000
  H   H16       1.0  0.12556613516027282  0.5382758580485938  0.2265651979025296  1.0000
  H   H17       1.0  0.07875500159766635  0.48301427005515607  0.6854132260552932  1.0000
  Zn  Zn1       1.0  0.9245797067681042  0.41154544521651193  0.6213820513682529  1.0000
  Zn  Zn2       1.0  0.1102597430940282  0.4096771402150403  0.6219192014470929  1.0000
  C   C25       1.0  0.01742187813719731  0.4054395624494309  0.8503727037749655  1.0000
  C   C26       1.0  0.017419599345182224  0.4157846406782262  0.3929286778188352  1.0000
  C   C27       1.0  0.017419424711251352  0.6477282226588714  0.6166605918704047  1.0000
  C   C28       1.0  0.017421989411477545  0.17349442130045034  0.6266408563054662  1.0000
  O   O2        1.0  0.08788279564392587  0.41680610233711324  0.4397899053899812  1.0000
  O   O3        1.0  0.08788553306624558  0.4029991211134356  0.8039188001938584  1.0000
  O   O4        1.0  0.08788260199710574  0.5986502879487607  0.615194613530851  1.0000
  O   O5        1.0  0.08788566335305248  0.2211549454265742  0.6285139979735541  1.0000
  O   O6        1.0  0.9469537231455962  0.6000676406439522  0.6147872546519018  1.0000
  O   O7        1.0  0.9469566542109036  0.404418033615936  0.8035113745429492  1.0000
  O   O8        1.0  0.9469539168450138  0.4182249695974165  0.4393809741166552  1.0000
  O   O9        1.0  0.9469567845506704  0.2225738034010658  0.6281051605897732  1.0000
