data_image0
_chemical_formula_structural       NC9NC3OH6C6BrH5C6NCOH7Zn2C4O8
_chemical_formula_sum              "N3 C29 O10 H18 Br1 Zn2"
_cell_length_a       15.78231758774541
_cell_length_b       10.302969083221269
_cell_length_c       10.29962270195845
_cell_angle_alpha    85.57966053933701
_cell_angle_beta     90.10253899755935
_cell_angle_gamma    89.63144763104107

_space_group_name_H-M_alt    "P 1"
_space_group_IT_number       1

loop_
  _space_group_symop_operation_xyz
  'x, y, z'

loop_
  _atom_site_type_symbol
  _atom_site_label
  _atom_site_symmetry_multiplicity
  _atom_site_fract_x
  _atom_site_fract_y
  _atom_site_fract_z
  _atom_site_occupancy
  N   N1        1.0  0.7975559614325685  0.4123499924567391  0.5699629561237791  1.0000
  C   C1        1.0  0.7490299797649411  0.3303205402509275  0.5940418039270206  1.0000
  C   C2        1.0  0.6887831691219275  0.22850205111846456  0.6239298572965504  1.0000
  C   C3        1.0  0.7084551831390379  0.10060159479835229  0.6613946616185655  1.0000
  C   C4        1.0  0.6317291876473505  0.038616051467115  0.6796261210750321  1.0000
  C   C5        1.0  0.569941566900314  0.13327704083284853  0.6519391569661885  1.0000
  C   C6        1.0  0.47685189343202516  0.11577570092050227  0.6571498166903735  1.0000
  C   C7        1.0  0.42309885732369823  0.22308574290361238  0.6255981461164286  1.0000
  C   C8        1.0  0.3348934455956157  0.2087350661212195  0.6298779226314921  1.0000
  C   C9        1.0  0.2804436794827787  0.31916734672343927  0.5973999936760881  1.0000
  N   N2        1.0  0.2366789630718878  0.4079406522012947  0.5712906415195309  1.0000
  C   C10       1.0  0.29975979499508104  0.08691463208246941  0.6657583617801992  1.0000
  C   C11       1.0  0.3525818831550481  0.9798264520315668  0.6972491571149555  1.0000
  C   C12       1.0  0.44060166186728994  0.9937828922840777  0.6930856810726032  1.0000
  O   O1        1.0  0.6063917106576636  0.24546258578283586  0.619029049700611  1.0000
  H   H1        1.0  0.7709187579960365  0.057468955794404586  0.6739782896511834  1.0000
  H   H2        1.0  0.6230045570768412  0.9366955232392888  0.7094960648683517  1.0000
  H   H3        1.0  0.4496973038511358  0.3178836395652396  0.5976720808953049  1.0000
  H   H4        1.0  0.23164441333387162  0.07476035390169078  0.6693809875727474  1.0000
  H   H5        1.0  0.3252530730118925  0.8856766431290672  0.7249847288428417  1.0000
  H   H6        1.0  0.47969436906262863  0.9089615148955795  0.7180368582950383  1.0000
  C   C13       1.0  0.017121498551701864  0.02889778069647675  0.57063245611498  1.0000
  C   C14       1.0  0.10497311071535287  0.025109111283019736  0.5927841981332969  1.0000
  C   C15       1.0  0.14855223885711566  0.9062918766244186  0.6037724860572065  1.0000
  C   C16       1.0  0.10497317719208277  0.7900267509356906  0.5927839519182783  1.0000
  C   C17       1.0  0.017121511560946656  0.7913827978948665  0.5706323700580227  1.0000
  C   C18       1.0  0.9736199388156469  0.9114140690190712  0.5596635273653559  1.0000
  Br  Br1       1.0  0.2680455540886302  0.9027929894186906  0.6339030201447569  1.0000
  H   H7        1.0  0.9840550003562634  0.3576254654882074  0.5622941661405423  1.0000
  H   H8        1.0  0.13994517635761627  0.11408440703764389  0.6016025306978845  1.0000
  H   H9        1.0  0.13994527593864192  0.6990034717067766  0.6016019460140087  1.0000
  H   H10       1.0  0.9058653969084949  0.9133979419309911  0.5425794255786183  1.0000
  H   H11       1.0  0.984054758101668  0.4645914763363222  0.5622960844051315  1.0000
  C   C19       1.0  0.01704087681092692  0.4100145455785029  0.18927538900572127  1.0000
  C   C20       1.0  0.9282568292118004  0.4209214647054629  0.1869134152848082  1.0000
  C   C21       1.0  0.8836832988529999  0.42854061603389404  0.06876138630812956  1.0000
  C   C22       1.0  0.9284441821649008  0.42119784876165967  0.9517417891807809  1.0000
  C   C23       1.0  0.01720213331947784  0.4102660455629108  0.9519894023915159  1.0000
  C   C24       1.0  0.06101947911701178  0.4052572112410979  0.07125846077383668  1.0000
  N   N3        1.0  0.7927206310574895  0.43768700869764476  0.07036899965403176  1.0000
  C   C25       1.0  0.7430116230589539  0.5090470463033188  0.9721451772130378  1.0000
  O   O2        1.0  0.777144222337992  0.58375021405442  0.8851384178164561  1.0000
  H   H12       1.0  0.18444961491828593  0.3880516914897332  0.4010896044366943  1.0000
  H   H13       1.0  0.8932710662359878  0.4246510597144779  0.2769632988754609  1.0000
  H   H14       1.0  0.8940542913363504  0.4212980948214424  0.8607855863748854  1.0000
  H   H15       1.0  0.12946327111329037  0.39686596502595783  0.07220187631923225  1.0000
  H   H16       1.0  0.05118659426204242  0.4041017995509315  0.6247894219602736  1.0000
  H   H17       1.0  0.7605469721570218  0.39764359714754316  0.15236904330383405  1.0000
  H   H18       1.0  0.6746785313606622  0.501636033234347  0.9748334102202847  1.0000
  Zn  Zn1       1.0  0.9242773720658548  0.4110740867044398  0.5703535906827288  1.0000
  Zn  Zn2       1.0  0.10995752619026611  0.40920596535810017  0.5709106229498917  1.0000
  C   C26       1.0  0.01716976171390039  0.40504649734221676  0.8078201522528796  1.0000
  C   C27       1.0  0.01706716419070964  0.41523517246045794  0.3334441949248288  1.0000
  C   C28       1.0  0.017116054579967566  0.6472552498488524  0.565457370069516  1.0000
  C   C29       1.0  0.017120807979593478  0.17302486080825208  0.5758070461547458  1.0000
  O   O3        1.0  0.08754063728535488  0.4162726562801795  0.38203995403254987  1.0000
  O   O4        1.0  0.08762322917431664  0.40259017311212864  0.759646793912802  1.0000
  O   O5        1.0  0.08757891037274601  0.5981768139111394  0.5639371296930145  1.0000
  O   O6        1.0  0.08758489270628034  0.22068602537378879  0.577749520690626  1.0000
  O   O7        1.0  0.9466499421863155  0.5995940273276601  0.5635146927450765  1.0000
  O   O8        1.0  0.9466942609694103  0.40400894631312867  0.7592242877213913  1.0000
  O   O9        1.0  0.9466116688066915  0.4176913837242002  0.38161588648929134  1.0000
  O   O10       1.0  0.9466559242447372  0.22210474356409926  0.5773255505121606  1.0000
