data_image0
_chemical_formula_structural       NC9NC3OH6C6FH5C7NH5Zn2C4O8
_chemical_formula_sum              "N3 C29 O9 H16 F1 Zn2"
_cell_length_a       15.78231758774541
_cell_length_b       9.275642734913903
_cell_length_c       10.302823150593486
_cell_angle_alpha    85.47815829151409
_cell_angle_beta     90.08385050025007
_cell_angle_gamma    90.2347076146716

_space_group_name_H-M_alt    "P 1"
_space_group_IT_number       1

loop_
  _space_group_symop_operation_xyz
  'x, y, z'

loop_
  _atom_site_type_symbol
  _atom_site_label
  _atom_site_symmetry_multiplicity
  _atom_site_fract_x
  _atom_site_fract_y
  _atom_site_fract_z
  _atom_site_occupancy
  N   N1        1.0  0.8075676757190715  0.5694548932681589  0.5683532247836822  1.0000
  C   C1        1.0  0.7584728173570904  0.4783223770470788  0.5925423876852318  1.0000
  C   C2        1.0  0.69751989238432  0.3652047726564154  0.6225673688061775  1.0000
  C   C3        1.0  0.7163049298058201  0.22311083293726863  0.6602041991354826  1.0000
  C   C4        1.0  0.6391490549706662  0.15424654734783738  0.6785190078312453  1.0000
  C   C5        1.0  0.5780178896893068  0.25941232524486457  0.6507047129957619  1.0000
  C   C6        1.0  0.4848068282346055  0.2399687802208661  0.655938888009225  1.0000
  C   C7        1.0  0.4317980015734871  0.35918737111612153  0.6242429192435084  1.0000
  C   C8        1.0  0.3434930530926352  0.34324413034391266  0.6285419756863289  1.0000
  C   C9        1.0  0.289809151330624  0.46593144798597663  0.5959155524642699  1.0000
  N   N2        1.0  0.24666009132010694  0.5645562225536838  0.5696868304435163  1.0000
  C   C10       1.0  0.30751454821112373  0.20790485852867335  0.6645862071417032  1.0000
  C   C11       1.0  0.3595939646346952  0.08893274871885537  0.6962210010910295  1.0000
  C   C12       1.0  0.44771054593438553  0.10443800309327633  0.69203877513482  1.0000
  O   O1        1.0  0.6152460391116504  0.38404744223005305  0.617643730110133  1.0000
  H   H1        1.0  0.7784693950870168  0.17519165891657695  0.6728458550359702  1.0000
  H   H2        1.0  0.6297176126981252  0.041015597873168774  0.7085260303088006  1.0000
  H   H3        1.0  0.45905389553486114  0.4645053222117228  0.5961893959139137  1.0000
  H   H4        1.0  0.23931486454170722  0.1944017621084282  0.6682251626375362  1.0000
  H   H5        1.0  0.3316122016198925  0.9843348057944552  0.7240831594365957  1.0000
  H   H6        1.0  0.4862150030686381  0.010203713708841544  0.7171040070440073  1.0000
  C   C13       1.0  0.02449787334815179  0.14349078543859162  0.5695703131313494  1.0000
  C   C14       1.0  0.008098189207339068  0.22698660380097624  0.45223509058094424  1.0000
  C   C15       1.0  0.999690687796423  0.1618033813102533  0.3353246350433974  1.0000
  C   C16       1.0  0.007619497784070228  0.0124241629066153  0.33368346211217914  1.0000
  C   C17       1.0  0.022487851575782036  0.9273559403826962  0.4491978879538914  1.0000
  C   C18       1.0  0.029737928417964632  0.9905091580391422  0.5684809737169352  1.0000
  F   F1        1.0  0.9848187672235799  0.24406876420845625  0.2229804248987428  1.0000
  H   H7        1.0  0.11205033629404348  0.22165982484217706  0.859827351532338  1.0000
  H   H8        1.0  0.003772139497712379  0.3436602456017579  0.45056039443084894  1.0000
  H   H9        1.0  0.001433228853514601  0.9620318388573345  0.2428659963099271  1.0000
  H   H10       1.0  0.026314085932903408  0.8111533287790021  0.4456413901465426  1.0000
  H   H11       1.0  0.08529954285140717  0.692465045009457  0.7655410812827803  1.0000
  C   C19       1.0  0.02711790233463729  0.5669999931664536  0.18777757396632277  1.0000
  C   C20       1.0  0.9383970319227718  0.5784436320538104  0.18566501930368728  1.0000
  C   C21       1.0  0.894257561861455  0.5841368318814533  0.0675114958490044  1.0000
  C   C22       1.0  0.9383970148651842  0.5784435380648985  0.9503640255262158  1.0000
  C   C23       1.0  0.027117901782391485  0.5669999856796029  0.9502737405893495  1.0000
  C   C24       1.0  0.07101477927703392  0.5613379247805836  0.06952591639722461  1.0000
  C   C25       1.0  0.8033056912173658  0.5958680053385266  0.0664749135934628  1.0000
  N   N3        1.0  0.7302101059012385  0.6052962121719119  0.06564180524372776  1.0000
  H   H12       1.0  0.060723525685706825  0.5626657407105231  0.5158999917068696  1.0000
  H   H13       1.0  0.9034066500461115  0.5829568561898535  0.27569049307239735  1.0000
  H   H14       1.0  0.9034066829919868  0.5829567496274417  0.8595409568132792  1.0000
  H   H15       1.0  0.13943311892855537  0.5525130272547758  0.07030569943966025  1.0000
  H   H16       1.0  0.060723495866346955  0.5626655095139041  0.6229172916107939  1.0000
  Zn  Zn1       1.0  0.9342802344656799  0.5680373903765608  0.5687455706162226  1.0000
  Zn  Zn2       1.0  0.11994743126086616  0.565961954606335  0.5693051127044009  1.0000
  C   C26       1.0  0.02708044903835871  0.5612545513733798  0.8061530124792049  1.0000
  C   C27       1.0  0.027149255425720886  0.5727465906524198  0.33189780203739927  1.0000
  C   C28       1.0  0.028743069840476698  0.8304047082649726  0.5635133507349155  1.0000
  C   C29       1.0  0.02548656054889009  0.30359470173438785  0.5745375350358608  1.0000
  O   O2        1.0  0.09761947245619518  0.5738812923324847  0.3804782185307505  1.0000
  O   O3        1.0  0.09752733159812799  0.5585435539725152  0.7579969031555094  1.0000
  O   O4        1.0  0.09886896909159759  0.7758857201481733  0.562063654790034  1.0000
  O   O5        1.0  0.096277771670916  0.35653913718193975  0.5764113693482089  1.0000
  O   O6        1.0  0.9579498306965378  0.7774602085107702  0.5616393137746389  1.0000
  O   O7        1.0  0.9566082039186888  0.5601197750713662  0.7575724906881673  1.0000
  O   O8        1.0  0.9567003445222377  0.5754574631734941  0.3800522452222559  1.0000
  O   O9        1.0  0.9553586436696756  0.35811529770765094  0.5759854933899571  1.0000
