data_image0
_chemical_formula_structural       NC9NC3OH6C6NCOH7C6H6Zn2C4O8
_chemical_formula_sum              "N3 C29 O10 H19 Zn2"
_cell_length_a       15.78231758774541
_cell_length_b       10.299619329790078
_cell_length_c       10.681121600428288
_cell_angle_alpha    85.56660960021885
_cell_angle_beta     90.08384876913414
_cell_angle_gamma    89.65730562172189

_space_group_name_H-M_alt    "P 1"
_space_group_IT_number       1

loop_
  _space_group_symop_operation_xyz
  'x, y, z'

loop_
  _atom_site_type_symbol
  _atom_site_label
  _atom_site_symmetry_multiplicity
  _atom_site_fract_x
  _atom_site_fract_y
  _atom_site_fract_z
  _atom_site_occupancy
  N   N1        1.0  0.7982748185137142  0.413265603319126  0.6211475852451558  1.0000
  C   C1        1.0  0.7497195636291692  0.33120242361296226  0.6443587266787583  1.0000
  C   C2        1.0  0.6894364177343705  0.22934207033884002  0.6731697330233066  1.0000
  C   C3        1.0  0.7090628056125345  0.10138905209125015  0.7092844270010361  1.0000
  C   C4        1.0  0.6323146821426419  0.039378010613458025  0.7268589092622715  1.0000
  C   C5        1.0  0.57056082123083  0.13407788821141353  0.7001697079566034  1.0000
  C   C6        1.0  0.4774648866793407  0.11656932820468868  0.7051926212775204  1.0000
  C   C7        1.0  0.4237501564747392  0.22392350928301696  0.6747779302010111  1.0000
  C   C8        1.0  0.3355396092942781  0.20956690983550552  0.6789035035876148  1.0000
  C   C9        1.0  0.28112926535916394  0.3200446165015989  0.6475959294686009  1.0000
  N   N2        1.0  0.2373962395652837  0.4088544390985407  0.6224274375589804  1.0000
  C   C10       1.0  0.30036245989499544  0.08769634767166945  0.7134909953539119  1.0000
  C   C11       1.0  0.3531463204262291  0.9805641183453873  0.7438470063513882  1.0000
  C   C12       1.0  0.4411710937807006  0.994526318977239  0.7398335426265428  1.0000
  O   O1        1.0  0.6070509953907478  0.24630955290301726  0.6684455578069073  1.0000
  H   H1        1.0  0.7715110044517567  0.05823870408445986  0.7214145643125089  1.0000
  H   H2        1.0  0.6235536900750417  0.9374155921404135  0.7556524421454316  1.0000
  H   H3        1.0  0.45038245377904  0.31876041607107997  0.6478581758244273  1.0000
  H   H4        1.0  0.23224272922135092  0.07553705400111332  0.7169830948689624  1.0000
  H   H5        1.0  0.3257838908381118  0.8863755658702658  0.7705831317789944  1.0000
  H   H6        1.0  0.480233520257373  0.909670048740616  0.7638855962839664  1.0000
  C   C13       1.0  0.01772718855844113  0.02969263170254166  0.6217545874552006  1.0000
  C   C14       1.0  0.9768586362627787  0.03819461286055481  0.5044311304180058  1.0000
  C   C15       1.0  0.9575299579970604  0.9257375112616018  0.4444519743933397  1.0000
  C   C16       1.0  0.9771109743007119  0.8030336207838604  0.5045282693026703  1.0000
  C   C17       1.0  0.017951920083440376  0.7924173873478801  0.621831297975717  1.0000
  C   C18       1.0  0.038329212079304176  0.9063667137476589  0.6795455284906153  1.0000
  N   N3        1.0  0.9145332466612085  0.9382478566707538  0.3252692592097963  1.0000
  C   C19       1.0  0.9278559955949344  0.8534356088006814  0.22677413165825233  1.0000
  O   O2        1.0  0.9873417794550117  0.7711136486715169  0.2322120671925747  1.0000
  H   H7        1.0  0.0940127072132737  0.22086512459872143  0.8436787966794681  1.0000
  H   H8        1.0  0.9604387765593104  0.13246171503094084  0.4584850356407051  1.0000
  H   H9        1.0  0.9589924116915204  0.7158222119012835  0.46115743401028975  1.0000
  H   H10       1.0  0.06984428513188123  0.8989369994638743  0.7699818715949625  1.0000
  H   H11       1.0  0.03249169566397536  0.4608352660745296  0.6677400699663498  1.0000
  H   H12       1.0  0.8753130537996847  0.01924336120929393  0.30487318246775286  1.0000
  H   H13       1.0  0.8876318452178573  0.8627101379781421  0.14442203075162752  1.0000
  C   C20       1.0  0.017839588461577183  0.41105497552374537  0.25404770132883714  1.0000
  C   C21       1.0  0.9571707497148376  0.3394365244563451  0.19244118788415054  1.0000
  C   C22       1.0  0.9571706968370816  0.33943660826011657  0.06155904778544263  1.0000
  C   C23       1.0  0.017839521869949193  0.4110550398539028  0.9895381368174418  1.0000
  C   C24       1.0  0.07845828623984796  0.4826141386449554  0.05114391800201612  1.0000
  C   C25       1.0  0.07845827539315109  0.4826141186160464  0.18203621663144087  1.0000
  H   H14       1.0  0.07919186690282287  0.48348091399218496  0.5474915426819158  1.0000
  H   H15       1.0  0.9096156498126055  0.283298597637601  0.24533377485492602  1.0000
  H   H16       1.0  0.9096156321344396  0.28329865894632666  0.016829745583963218  1.0000
  H   H17       1.0  0.1260195962569357  0.5387594635639412  0.9982956852426494  1.0000
  H   H18       1.0  0.12601955355230698  0.5387594184668654  0.22672005259805195  1.0000
  H   H19       1.0  0.07919213122053237  0.48348045887101687  0.6855625176937488  1.0000
  Zn  Zn1       1.0  0.9249957704167044  0.41198916764921245  0.6215241484043543  1.0000
  Zn  Zn2       1.0  0.11067525604566142  0.41012027534193174  0.6220611104052232  1.0000
  C   C26       1.0  0.017836142030875912  0.40588136548437936  0.8505141861458803  1.0000
  C   C27       1.0  0.01783691252856534  0.41622969571139623  0.3930712016050013  1.0000
  C   C28       1.0  0.017905105011906564  0.6482461896700409  0.6168264648839401  1.0000
  C   C29       1.0  0.017767885728307453  0.17386331186727189  0.6267589892920542  1.0000
  O   O3        1.0  0.088300409910824  0.41725147846901556  0.439932532004345  1.0000
  O   O4        1.0  0.08829907762146472  0.4034401569902524  0.8040600368911524  1.0000
  O   O5        1.0  0.08835381620695903  0.599152827202605  0.615355545981485  1.0000
  O   O6        1.0  0.0882456079682421  0.2215388181845681  0.6286369288355773  1.0000
  O   O7        1.0  0.9474253551308289  0.6005706254457512  0.6149483297841747  1.0000
  O   O8        1.0  0.9473706170012667  0.4048595155310357  0.8036527540789042  1.0000
  O   O9        1.0  0.9473719493337207  0.4186707917533805  0.43952374356512625  1.0000
  O   O10       1.0  0.9473171473849314  0.22295812218020217  0.6282282342849681  1.0000
