data_image0
_chemical_formula_structural       NC9NC3OH6C9H8C6NH7Zn2C4O8
_chemical_formula_sum              "N3 C31 O9 H21 Zn2"
_cell_length_a       15.78231758774541
_cell_length_b       9.275152443626249
_cell_length_c       9.274774538082514
_cell_angle_alpha    84.86265069898315
_cell_angle_beta     90.43038941912484
_cell_angle_gamma    90.20707041648352

_space_group_name_H-M_alt    "P 1"
_space_group_IT_number       1

loop_
  _space_group_symop_operation_xyz
  'x, y, z'

loop_
  _atom_site_type_symbol
  _atom_site_label
  _atom_site_symmetry_multiplicity
  _atom_site_fract_x
  _atom_site_fract_y
  _atom_site_fract_z
  _atom_site_occupancy
  N   N1        1.0  0.8014809485930563  0.5837335257811727  0.40527359384656303  1.0000
  C   C1        1.0  0.7525078001212185  0.49234493865387163  0.4323483398223593  1.0000
  C   C2        1.0  0.6917059480833752  0.37890948461971585  0.4659550700666699  1.0000
  C   C3        1.0  0.7106804453613967  0.2364170463156392  0.5080822871005768  1.0000
  C   C4        1.0  0.6336166831889987  0.16735890814511034  0.528581637819963  1.0000
  C   C5        1.0  0.572345458169331  0.272819219397322  0.4974485525142831  1.0000
  C   C6        1.0  0.47916065227782456  0.2533203277756313  0.503306568354023  1.0000
  C   C7        1.0  0.4259924017424452  0.3728744131013271  0.46782990611924813  1.0000
  C   C8        1.0  0.3377090103368177  0.3568857198506239  0.4726412966918343  1.0000
  C   C9        1.0  0.2838610137702354  0.4799183734551935  0.4361232579150922  1.0000
  N   N2        1.0  0.2405800376476773  0.578820766096054  0.40676603530013544  1.0000
  C   C10       1.0  0.3019117316705694  0.22116498204197566  0.5129844096715481  1.0000
  C   C11       1.0  0.3541502594882127  0.10185802908012831  0.5483925671530465  1.0000
  C   C12       1.0  0.44224587092133233  0.11740749964217967  0.5437119396796837  1.0000
  O   O1        1.0  0.609407235563802  0.39780434390465125  0.46044348863444085  1.0000
  H   H1        1.0  0.7729086034543535  0.18836397848751152  0.5222325842941964  1.0000
  H   H2        1.0  0.6243362763461711  0.05381025762963576  0.5621686317693841  1.0000
  H   H3        1.0  0.4531072510175628  0.47848925826875033  0.43643056346668363  1.0000
  H   H4        1.0  0.2337302973814901  0.20762341036394583  0.5170570485304751  1.0000
  H   H5        1.0  0.32630857856980106  0.9969652176889111  0.5795777183656123  1.0000
  H   H6        1.0  0.4808763879084785  0.022907910719247804  0.5717668624748029  1.0000
  C   C13       1.0  0.01854031749170182  0.15765989624815835  0.40748484409881014  1.0000
  C   C14       1.0  0.9875418130805358  0.24181358979767187  0.28476366754804094  1.0000
  C   C15       1.0  0.9644110147476005  0.1777184977249957  0.15977355797061654  1.0000
  C   C16       1.0  0.9719137137310259  0.02833413392954709  0.15503017367223237  1.0000
  C   C17       1.0  0.0012517149371222835  0.9425198931768204  0.2767094439428923  1.0000
  C   C18       1.0  0.02352873824095747  0.004883150891685117  0.4045672765634307  1.0000
  C   C19       1.0  0.9485010497734752  0.9625727055825603  0.025596892236359414  1.0000
  C   C20       1.0  0.9288983795296263  0.9074796314235288  0.9172168187321605  1.0000
  C   C21       1.0  0.905114405410434  0.8406219279179135  0.785716608712471  1.0000
  H   H7        1.0  0.14130619201302252  0.23542839520441516  0.6961468846772003  1.0000
  H   H8        1.0  0.9830770109277467  0.35838498137709496  0.28429449732605017  1.0000
  H   H9        1.0  0.9414272507386727  0.2450291957718107  0.0662197111940801  1.0000
  H   H10       1.0  0.0048047991123532086  0.8262051628218666  0.272695234201461  1.0000
  H   H11       1.0  0.10347812236822596  0.7069729028909403  0.6019887630492329  1.0000
  H   H12       1.0  0.9206512265543779  0.7236088834109249  0.7992529875169616  1.0000
  H   H13       1.0  0.8360836165820492  0.8541488414229575  0.7657232523626005  1.0000
  H   H14       1.0  0.9405651799439988  0.8933871576710701  0.692414073029759  1.0000
  C   C22       1.0  0.019535683046617125  0.5849780802464473  0.9821918902524431  1.0000
  C   C23       1.0  0.08007343105522735  0.669434583805425  0.04883930019614047  1.0000
  C   C24       1.0  0.14434235969890863  0.7419655947177806  0.968039123885089  1.0000
  C   C25       1.0  0.14859252442646143  0.7303665110423325  0.8191161620273957  1.0000
  C   C26       1.0  0.08834531960990955  0.6490847813993113  0.7507561701676391  1.0000
  C   C27       1.0  0.02253335822491853  0.5775648936381415  0.8298602639927353  1.0000
  N   N3        1.0  0.205851607607062  0.8262105241523034  0.03769577603326746  1.0000
  H   H15       1.0  0.8912279115370201  0.30439988154623454  0.10865284625369398  1.0000
  H   H16       1.0  0.0785885720740922  0.676293315843977  0.16483068563558811  1.0000
  H   H17       1.0  0.19820816038611277  0.7855498148865363  0.7555609787948776  1.0000
  H   H18       1.0  0.09209987276856269  0.6450298599044413  0.6346097800317523  1.0000
  H   H19       1.0  0.9335372697784029  0.39300629425822664  0.564118656603469  1.0000
  H   H20       1.0  0.20344446660327398  0.8352842948088341  0.1490261844703773  1.0000
  H   H21       1.0  0.2542376338043506  0.8802731074866563  0.9784290274305709  1.0000
  Zn  Zn1       1.0  0.928195463749374  0.5823118833557366  0.40571262134179786  1.0000
  Zn  Zn2       1.0  0.11386546639962103  0.5802305316550342  0.4063388467911604  1.0000
  C   C28       1.0  0.021931011280549972  0.573219375545637  0.669652575968914  1.0000
  C   C29       1.0  0.020131957597010475  0.5893248356446559  0.1423990343942665  1.0000
  C   C30       1.0  0.0225611147430147  0.844790240040334  0.3993673485167657  1.0000
  C   C31       1.0  0.01950178084573495  0.31775223803355934  0.4126843445494073  1.0000
  O   O2        1.0  0.09079283410633376  0.5899874909459459  0.19640368644521278  1.0000
  O   O3        1.0  0.09218936279445944  0.5709759378395214  0.6161228028180881  1.0000
  O   O4        1.0  0.09269723477109548  0.7902728429245176  0.39786556096869674  1.0000
  O   O5        1.0  0.09028489845116527  0.37069059783696834  0.41466081982808234  1.0000
  O   O6        1.0  0.9517759683377528  0.7918518178857021  0.3973906480835794  1.0000
  O   O7        1.0  0.9512681062898498  0.5725566466290062  0.6156478070086806  1.0000
  O   O8        1.0  0.9498715712255342  0.5915681646408115  0.19592695554708905  1.0000
  O   O9        1.0  0.9493636358888211  0.3722712602677154  0.4141841971751832  1.0000
