data_image0
_chemical_formula_structural       NC9NC3OH6C6NCOH7C6BrH5Zn2C4O8
_chemical_formula_sum              "N3 C29 O10 H18 Br1 Zn2"
_cell_length_a       15.78231758774541
_cell_length_b       10.299619329790078
_cell_length_c       10.302972455390005
_cell_angle_alpha    85.56660839363487
_cell_angle_beta     90.08385913268748
_cell_angle_gamma    89.65730562172189

_space_group_name_H-M_alt    "P 1"
_space_group_IT_number       1

loop_
  _space_group_symop_operation_xyz
  'x, y, z'

loop_
  _atom_site_type_symbol
  _atom_site_label
  _atom_site_symmetry_multiplicity
  _atom_site_fract_x
  _atom_site_fract_y
  _atom_site_fract_z
  _atom_site_occupancy
  N   N1        1.0  0.7982746495958541  0.4132656351089994  0.5705396763875283  1.0000
  C   C1        1.0  0.749719397554816  0.3312024548676955  0.5946027344712257  1.0000
  C   C2        1.0  0.6894362551895421  0.2293421009293266  0.6244711888555925  1.0000
  C   C3        1.0  0.7090626474919771  0.10138908184910145  0.6619113975306805  1.0000
  C   C4        1.0  0.632314526175066  0.0393780399661241  0.680130914595481  1.0000
  C   C5        1.0  0.570560661993664  0.1340779181794074  0.6524621416890333  1.0000
  C   C6        1.0  0.47746472805751217  0.1165693580568774  0.6576694105920451  1.0000
  C   C7        1.0  0.4237499941269249  0.2239235398364261  0.6261384115644726  1.0000
  C   C8        1.0  0.33553944745187175  0.2095669402937983  0.6304154055380085  1.0000
  C   C9        1.0  0.2811290996813881  0.3200446476816976  0.5979587520537095  1.0000
  N   N2        1.0  0.23739607080421352  0.4088544708589066  0.5718665030174988  1.0000
  C   C10       1.0  0.3003623022897684  0.08769637733253699  0.6662723592221962  1.0000
  C   C11       1.0  0.3531461665397994  0.9805641473063873  0.697742524440532  1.0000
  C   C12       1.0  0.4411709394025968  0.9945263480307708  0.6935817548806187  1.0000
  O   O1        1.0  0.6070508322671789  0.24630958360242117  0.6195736226176303  1.0000
  H   H1        1.0  0.7715108478172154  0.05823873356264686  0.6744867462925741  1.0000
  H   H2        1.0  0.6235535376348501  0.9374156208292355  0.7099812541914166  1.0000
  H   H3        1.0  0.45038228813339093  0.3187604472451324  0.5982306236163615  1.0000
  H   H4        1.0  0.23224257204392754  0.07553708358146904  0.6698926289838143  1.0000
  H   H5        1.0  0.3257837402270209  0.8863755942148561  0.7254599437211771  1.0000
  H   H6        1.0  0.4802333688257931  0.9096700772396202  0.7185165891215977  1.0000
  C   C13       1.0  0.01772701971494217  0.029692663478420478  0.5711689573506824  1.0000
  C   C14       1.0  0.9768584530464386  0.038194647341362575  0.4495393869419162  1.0000
  C   C15       1.0  0.9575297674329067  0.9257375471252477  0.3873588207960701  1.0000
  C   C16       1.0  0.977110791096272  0.8030336552624289  0.44964009110722136  1.0000
  C   C17       1.0  0.01795175124933923  0.7924174191219907  0.5712484833712399  1.0000
  C   C18       1.0  0.038329050315550006  0.9063667441911495  0.6310809946291907  1.0000
  N   N3        1.0  0.9145330414964428  0.9382478952821947  0.26380175203931544  1.0000
  C   C19       1.0  0.9278557783639128  0.8534356496829584  0.16169156577321386  1.0000
  O   O2        1.0  0.9873415628901704  0.7711136894284204  0.16732908941642277  1.0000
  H   H7        1.0  0.09401256555684911  0.22086515125806838  0.8012384329091424  1.0000
  H   H8        1.0  0.9604385877142925  0.13246175057105058  0.4019069363574437  1.0000
  H   H9        1.0  0.9589922231738879  0.7158222473797801  0.40467741954863246  1.0000
  H   H10       1.0  0.06984413444713211  0.898937027822327  0.7248366155331527  1.0000
  H   H11       1.0  0.03249153245397962  0.4608352967901987  0.6188422413138177  1.0000
  H   H12       1.0  0.8753128461362747  0.019243400290972934  0.24265707973927841  1.0000
  H   H13       1.0  0.8876316178981992  0.8627101807590725  0.07631690235567823  1.0000
  C   C20       1.0  0.017839374571734457  0.4110550157772215  0.18996615506949688  1.0000
  C   C21       1.0  0.042504569186147645  0.27940840434313663  0.19897816029799476  1.0000
  C   C22       1.0  0.05473988374616834  0.2141045767974179  0.08651076638760591  1.0000
  C   C23       1.0  0.0425047119820503  0.27940835221997196  0.9638957701228916  1.0000
  C   C24       1.0  0.017839414662060182  0.4110550189285278  0.952451237265493  1.0000
  C   C25       1.0  0.005625882704369367  0.47624257182961927  0.06614396287079716  1.0000
  Br  Br1       1.0  0.08828862377072588  0.03504243254670669  0.10042303838083133  1.0000
  H   H14       1.0  0.008555968230973932  0.460605789615641  0.5138756667360223  1.0000
  H   H15       1.0  0.052323205426412445  0.22700229863540367  0.2930491473975656  1.0000
  H   H16       1.0  0.05232354025026864  0.22700233877824316  0.8779682457843956  1.0000
  H   H17       1.0  0.9866030951257828  0.577773487175995  0.05825550203366414  1.0000
  H   H18       1.0  0.0085547772506962  0.46060531394267  0.6208420391004399  1.0000
  Zn  Zn1       1.0  0.9249956015449758  0.41198919943040413  0.5709300605139569  1.0000
  Zn  Zn2       1.0  0.11067508723971398  0.41012030711074376  0.5714867305877924  1.0000
  C   C26       1.0  0.0178360012118286  0.40588139198613415  0.8083247011232879  1.0000
  C   C27       1.0  0.017836715669952596  0.41622973275964226  0.3340922236522885  1.0000
  C   C28       1.0  0.017904935564682978  0.6482462215595388  0.5660599582945589  1.0000
  C   C29       1.0  0.017767717497878532  0.17386334352777277  0.5763570353441254  1.0000
  O   O3        1.0  0.08830021879301109  0.4172515144368585  0.3826735016779481  1.0000
  O   O4        1.0  0.08829893111149989  0.4034401845630218  0.7601655489789216  1.0000
  O   O5        1.0  0.0883536465795387  0.5991528591260162  0.5645350523743808  1.0000
  O   O6        1.0  0.08824543996787249  0.22153884980177252  0.5783039007510995  1.0000
  O   O7        1.0  0.947425185453522  0.6005706573785503  0.5641128901538572  1.0000
  O   O8        1.0  0.9473704704414069  0.4048595431131956  0.7597433176984967  1.0000
  O   O9        1.0  0.9473717581658285  0.4186708277306481  0.3822497095096471  1.0000
  O   O10       1.0  0.9473169793344942  0.22295815380682926  0.5778802059173955  1.0000
