data_image0
_chemical_formula_structural       NC9NC3OH6C6ClH5C6BrH5Zn2C4O8
_chemical_formula_sum              "N2 C28 O9 H16 Cl1 Br1 Zn2"
_cell_length_a       15.78231758774541
_cell_length_b       10.30297070629231
_cell_length_c       10.302972455390005
_cell_angle_alpha    85.56070500176591
_cell_angle_beta     90.08385913268748
_cell_angle_gamma    89.63144908567993

_space_group_name_H-M_alt    "P 1"
_space_group_IT_number       1

loop_
  _space_group_symop_operation_xyz
  'x, y, z'

loop_
  _atom_site_type_symbol
  _atom_site_label
  _atom_site_symmetry_multiplicity
  _atom_site_fract_x
  _atom_site_fract_y
  _atom_site_fract_z
  _atom_site_occupancy
  N   N1        1.0  0.7978582334639335  0.41282127376343913  0.5703924243460836  1.0000
  C   C1        1.0  0.7493271611887087  0.33078389596456836  0.5944640328186945  1.0000
  C   C2        1.0  0.689074031790233  0.22895556912911008  0.6243431003140627  1.0000
  C   C3        1.0  0.7087381252154782  0.10104278125122512  0.6617966407668436  1.0000
  C   C4        1.0  0.6320082753385255  0.039051236983789206  0.6800226189329988  1.0000
  C   C5        1.0  0.5702265080113882  0.13372133950291976  0.6523439789852494  1.0000
  C   C6        1.0  0.4771357329404212  0.11621828445115767  0.6575530721533935  1.0000
  C   C7        1.0  0.4233893672967209  0.22353871174925444  0.6260108875977561  1.0000
  C   C8        1.0  0.33518305076743843  0.20918662623267514  0.6302893774249649  1.0000
  C   C9        1.0  0.2807401509427399  0.31962959703497407  0.5978212129638596  1.0000
  N   N2        1.0  0.23698095441376293  0.40841149647899044  0.5717197105874146  1.0000
  C   C10       1.0  0.300041814543586  0.08735438201772427  0.6661590291389796  1.0000
  C   C11       1.0  0.3528572451090521  0.9802558366865853  0.6976403567596157  1.0000
  C   C12       1.0  0.44087790403496874  0.9942136473924564  0.6934781324395294  1.0000
  O   O1        1.0  0.6066836094301646  0.24591771685791386  0.6194437661873184  1.0000
  H   H1        1.0  0.7711990397118376  0.057906000369474686  0.6743764854824466  1.0000
  H   H2        1.0  0.6232773298384314  0.9371208770413211  0.7098835822743901  1.0000
  H   H3        1.0  0.4499937177820503  0.31834580037885885  0.598093218330894  1.0000
  H   H4        1.0  0.2319256670113871  0.07519891141214186  0.6697805658109239  1.0000
  H   H5        1.0  0.32552257128099804  0.8860968985175063  0.7253675898051881  1.0000
  H   H6        1.0  0.4799653362029955  0.9093840572519432  0.7184218080892235  1.0000
  C   C13       1.0  0.017423622656851823  0.029368905788365707  0.5710616708342688  1.0000
  C   C14       1.0  0.10491750686227008  0.025347253820469318  0.5963320684502749  1.0000
  C   C15       1.0  0.14832963695638246  0.9063949735434707  0.6088704745201603  1.0000
  C   C16       1.0  0.10491750618581053  0.7902392851572493  0.5963320073910217  1.0000
  C   C17       1.0  0.017423631699530873  0.7918538475103734  0.571061745179732  1.0000
  C   C18       1.0  0.9741031827758102  0.9120067392964987  0.5585496996471766  1.0000
  Cl  Cl1       1.0  0.2576303442729255  0.9028744889943683  0.6404391324460008  1.0000
  H   H7        1.0  0.984466208877121  0.3581869099711721  0.5615420278030088  1.0000
  H   H8        1.0  0.13971595096208977  0.11427300960393971  0.6063826082665373  1.0000
  H   H9        1.0  0.1397159174536644  0.6990718171121675  0.6063825148902735  1.0000
  H   H10       1.0  0.9066252441202908  0.9141800321348119  0.5390603693114164  1.0000
  H   H11       1.0  0.9844662047449907  0.4651589433369119  0.5615422729038035  1.0000
  C   C19       1.0  0.017423609794753103  0.41061134949829015  0.1898191333585726  1.0000
  C   C20       1.0  0.042127593842200994  0.2790061306120337  0.1988448552103308  1.0000
  C   C21       1.0  0.05438215005544689  0.21372283600503317  0.08638426548570943  1.0000
  C   C22       1.0  0.04212773665346159  0.27900607850525727  0.9637624650406584  1.0000
  C   C23       1.0  0.01742364988415024  0.41061135264860527  0.9523042155542405  1.0000
  C   C24       1.0  0.005190910533344528  0.47577840917024705  0.06599014908875245  1.0000
  Br  Br1       1.0  0.08798365041297385  0.03471699277331064  0.10031519445723514  1.0000
  H   H12       1.0  0.008125603409200322  0.46014654349949446  0.5137234821934116  1.0000
  H   H13       1.0  0.051961671445565294  0.22661650251973886  0.29292130264648475  1.0000
  H   H14       1.0  0.051962006257593396  0.2266165426499569  0.8778404010291316  1.0000
  H   H15       1.0  0.9861382070564382  0.5772774009963453  0.05809110946573348  1.0000
  H   H16       1.0  0.008124412569078476  0.4601460679760856  0.6206898546073907  1.0000
  Zn  Zn1       1.0  0.924579561512491  0.41154523942388566  0.5707829414678633  1.0000
  Zn  Zn2       1.0  0.11025959787292927  0.40967693472447486  0.5713398062667403  1.0000
  C   C25       1.0  0.0174217608336249  0.4054393524066513  0.8081782184664845  1.0000
  C   C26       1.0  0.017419426172085917  0.41578443943753873  0.33394466277334045  1.0000
  C   C27       1.0  0.01741928283317673  0.647727977224835  0.5658882229782114  1.0000
  C   C28       1.0  0.01742184081286502  0.17349425545128128  0.5762347272872268  1.0000
  O   O2        1.0  0.08788262822904414  0.41680589984445104  0.38252583433675125  1.0000
  O   O3        1.0  0.08788541003059347  0.40299891255206144  0.760019320678248  1.0000
  O   O4        1.0  0.08788245911739145  0.5986500508084678  0.5643684322307658  1.0000
  O   O5        1.0  0.08788551578222159  0.22115477151283147  0.5781766252518099  1.0000
  O   O6        1.0  0.9469535802397154  0.6000674032745037  0.5639461222859343  1.0000
  O   O7        1.0  0.9469565311491026  0.4044178248251451  0.759596941510944  1.0000
  O   O8        1.0  0.9469537494037982  0.4182247668753798  0.3821018942862864  1.0000
  O   O9        1.0  0.9469566369535167  0.2225736292579481  0.5777527825369098  1.0000
