data_image0
_chemical_formula_structural       NC9NC3OH6C7OH6C7F3H5Zn2C4O8
_chemical_formula_sum              "N2 C30 O10 H17 F3 Zn2"
_cell_length_a       15.78231758774541
_cell_length_b       9.274078303013075
_cell_length_c       9.272291681409872
_cell_angle_alpha    86.24016049207208
_cell_angle_beta     90.49794672891421
_cell_angle_gamma    89.04960325712263

_space_group_name_H-M_alt    "P 1"
_space_group_IT_number       1

loop_
  _space_group_symop_operation_xyz
  'x, y, z'

loop_
  _atom_site_type_symbol
  _atom_site_label
  _atom_site_symmetry_multiplicity
  _atom_site_fract_x
  _atom_site_fract_y
  _atom_site_fract_z
  _atom_site_occupancy
  N   N1        1.0  0.7819128244504648  0.5556181460686118  0.417173473628522  1.0000
  C   C1        1.0  0.7340353045002298  0.4647198181879031  0.443627776928462  1.0000
  C   C2        1.0  0.6745933940156653  0.3518929018350343  0.4764643865806355  1.0000
  C   C3        1.0  0.6952761423257081  0.21016334643283408  0.517624303053694  1.0000
  C   C4        1.0  0.6190403168370869  0.14147637554017356  0.5376547728624019  1.0000
  C   C5        1.0  0.556504818986492  0.24637286590087148  0.5072375512905956  1.0000
  C   C6        1.0  0.4635538210418399  0.22697999403133662  0.5129631050777588  1.0000
  C   C7        1.0  0.4089522450866823  0.3458917203656422  0.4782981615569939  1.0000
  C   C8        1.0  0.3208605755254852  0.32999009950191716  0.4830009278551055  1.0000
  C   C9        1.0  0.2655375445110589  0.4523615445800122  0.4473182350354674  1.0000
  N   N2        1.0  0.22107083011069592  0.5507323859281557  0.4186325243361526  1.0000
  C   C10       1.0  0.28669047882714316  0.19499978849890698  0.5224224872859462  1.0000
  C   C11       1.0  0.3403593717064038  0.07633395088402728  0.557020599046228  1.0000
  C   C12       1.0  0.4282685273254099  0.09179871643544213  0.5524456132859767  1.0000
  O   O1        1.0  0.5920682015922237  0.3706879011826567  0.47108099558836347  1.0000
  H   H1        1.0  0.7580803489160255  0.1623665649212509  0.5314484526333594  1.0000
  H   H2        1.0  0.6111211811131144  0.028535941362344497  0.5704709320485541  1.0000
  H   H3        1.0  0.4348008550147376  0.4509380724864154  0.4476159566192308  1.0000
  H   H4        1.0  0.21867142151482283  0.1815319214847524  0.5264031295686682  1.0000
  H   H5        1.0  0.3137752737575689  0.9720057542327325  0.5874935147627984  1.0000
  H   H6        1.0  0.468031999856293  0.9978070958510614  0.5798589129535723  1.0000
  C   C13       1.0  0.0040162084025849865  0.12966844370801955  0.4166185568895442  1.0000
  C   C14       1.0  0.987090050012272  0.21218312829017894  0.2864163145353642  1.0000
  C   C15       1.0  0.9628628540962533  0.14625558358370871  0.1611143822070238  1.0000
  C   C16       1.0  0.9553363141902074  0.9957380299550813  0.16593405514153292  1.0000
  C   C17       1.0  0.9732048829345396  0.9121308018502601  0.2934562402155654  1.0000
  C   C18       1.0  0.9989756641598713  0.9766710082983986  0.41919992224621794  1.0000
  C   C19       1.0  0.944847033126572  0.23620054120912148  0.026876554683010756  1.0000
  O   O2        1.0  0.9225935534561265  0.18015298972732663  0.912648676279836  1.0000
  H   H7        1.0  0.0028867522095799014  0.20941244528625003  0.7715828614587028  1.0000
  H   H8        1.0  0.9908674008311045  0.32897952900484695  0.2833193102480016  1.0000
  H   H9        1.0  0.9364041046425098  0.9422649188197743  0.07069278477636987  1.0000
  H   H10       1.0  0.9687846462588107  0.7957360879143043  0.2926703273740603  1.0000
  H   H11       1.0  0.0019224173335501415  0.6798326057169919  0.6576424692851617  1.0000
  H   H12       1.0  0.9506905026236225  0.3524368694490858  0.025381027592500605  1.0000
  C   C20       1.0  0.9997343395789017  0.5494876254148873  0.9945313024426832  1.0000
  C   C21       1.0  0.057264920059191704  0.45808948614412803  0.07466340689302386  1.0000
  C   C22       1.0  0.11932322047808053  0.37956301062084896  0.005833798284590852  1.0000
  C   C23       1.0  0.12631839158397073  0.3920576638992772  0.8550032658069107  1.0000
  C   C24       1.0  0.06712779333152596  0.4786967523078358  0.7736807933552434  1.0000
  C   C25       1.0  0.0032575041660443116  0.5568518866643883  0.8412870988882126  1.0000
  C   C26       1.0  0.1918944044906088  0.30399161323193047  0.7803678895406412  1.0000
  F   F1        1.0  0.2629920820260889  0.27885124816160145  0.8674485502597795  1.0000
  F   F2        1.0  0.21682788965997246  0.3758815939231894  0.6525996782019305  1.0000
  F   F3        1.0  0.15776389847861894  0.17296024706517166  0.7498923260455643  1.0000
  H   H13       1.0  0.8786703615115553  0.842241601928166  0.0751136365386138  1.0000
  H   H14       1.0  0.05536038004695243  0.44950103448675627  0.1916773561392371  1.0000
  H   H15       1.0  0.1624226300062519  0.3098508946374219  0.07097795445075561  1.0000
  H   H16       1.0  0.06952087319978317  0.4825167198427207  0.6567127505341568  1.0000
  H   H17       1.0  0.8103990457214238  0.6971443655353737  0.7277278116304307  1.0000
  Zn  Zn1       1.0  0.9086443924421476  0.5542044413112952  0.4176028313010993  1.0000
  Zn  Zn2       1.0  0.09433935271204685  0.5521344225669109  0.4182149165319662  1.0000
  C   C27       1.0  0.0026238607216990673  0.5497145481678247  0.6812146372410113  1.0000
  C   C28       1.0  0.0003619019754965702  0.5566261140092061  0.15460326432892924  1.0000
  C   C29       1.0  0.9999001555355923  0.8165195932480596  0.4129667094392797  1.0000
  C   C30       1.0  0.0030855544281225278  0.28981933760148904  0.4228512635066999  1.0000
  O   O3        1.0  0.07104282475624535  0.558230002910697  0.20855714099382539  1.0000
  O   O4        1.0  0.07288112084465248  0.5465384713535943  0.6277249007615782  1.0000
  O   O5        1.0  0.07068075072554691  0.7619869430938553  0.4111128026018078  1.0000
  O   O6        1.0  0.07324313099905932  0.34278154125335214  0.42516913087537533  1.0000
  O   O7        1.0  0.9297405507865176  0.7635573233327542  0.4106486167412362  1.0000
  O   O8        1.0  0.9319409102704874  0.5481105836278741  0.6272606433085144  1.0000
  O   O9        1.0  0.9301026073252188  0.5598020498526959  0.20809114999383294  1.0000
  O   O10       1.0  0.9323029140757073  0.3443535788203349  0.42470324793715086  1.0000
