data_image0
_chemical_formula_structural       NC9NC3OH6C6NCH9C6FH5Zn2C4O8
_chemical_formula_sum              "N3 C29 O9 H20 F1 Zn2"
_cell_length_a       15.78231758774541
_cell_length_b       9.273386996610926
_cell_length_c       9.275646106892307
_cell_angle_alpha    84.8581551566088
_cell_angle_beta     90.10253560025426
_cell_angle_gamma    89.03191128213776

_space_group_name_H-M_alt    "P 1"
_space_group_IT_number       1

loop_
  _space_group_symop_operation_xyz
  'x, y, z'

loop_
  _atom_site_type_symbol
  _atom_site_label
  _atom_site_symmetry_multiplicity
  _atom_site_fract_x
  _atom_site_fract_y
  _atom_site_fract_z
  _atom_site_occupancy
  N   N1        1.0  0.7877270475005872  0.5870447589317513  0.40798851681671566  1.0000
  C   C1        1.0  0.7397647192900588  0.4955891891408244  0.4349034256372548  1.0000
  C   C2        1.0  0.6802175396377075  0.38207059259498743  0.4683117591329824  1.0000
  C   C3        1.0  0.7007683933929749  0.23947388264136893  0.5101897549279748  1.0000
  C   C4        1.0  0.6244683269881526  0.17036505192864126  0.5305683260499743  1.0000
  C   C5        1.0  0.5620302692065443  0.2759024484159458  0.49961969451855115  1.0000
  C   C6        1.0  0.4690608626176375  0.2563891099118254  0.5054436110854044  1.0000
  C   C7        1.0  0.4145704547986285  0.3760309317014159  0.4701760441894136  1.0000
  C   C8        1.0  0.3264636598876541  0.36003037713719643  0.4749594744418988  1.0000
  C   C9        1.0  0.2712550668620621  0.4831533374670174  0.43865661443477966  1.0000
  N   N2        1.0  0.22688035136078602  0.5821283277998162  0.40947236774090645  1.0000
  C   C10       1.0  0.2921670955331013  0.22420990665000873  0.5150652206291724  1.0000
  C   C11       1.0  0.34572503143135314  0.10481538935823553  0.5502647152325708  1.0000
  C   C12       1.0  0.4336489023360014  0.12037639808723499  0.5456112799171908  1.0000
  O   O1        1.0  0.5977095488337305  0.40097913604461954  0.46283322871532717  1.0000
  H   H1        1.0  0.7635283384352305  0.1913857587264427  0.5242560038891151  1.0000
  H   H2        1.0  0.616444022678747  0.056733277716431774  0.5639567226687703  1.0000
  H   H3        1.0  0.4405174992324837  0.48172339661005115  0.43896141481445916  1.0000
  H   H4        1.0  0.2241352369364885  0.21065829356624355  0.5191141784710784  1.0000
  H   H5        1.0  0.31904317010984107  0.999845487974512  0.5812664159790986  1.0000
  H   H6        1.0  0.473324453750983  0.025807434517626238  0.5735009273247558  1.0000
  C   C13       1.0  0.009913740529882809  0.16089578960606876  0.40944851086466194  1.0000
  C   C14       1.0  0.024753686396995933  0.24559560938297498  0.27899481901769363  1.0000
  C   C15       1.0  0.03161504662599457  0.18240634840589487  0.14850610154503818  1.0000
  C   C16       1.0  0.023739848071155478  0.03222948462136643  0.14513453912444585  1.0000
  C   C17       1.0  0.01039307918372634  0.9465548638294321  0.27513993511287627  1.0000
  C   C18       1.0  0.004701797706819111  0.008265973925727588  0.4080249107457312  1.0000
  N   N3        1.0  0.029884064135973887  0.9640405346259365  0.01194885123939815  1.0000
  C   C19       1.0  0.04395842819427287  0.04328003333136987  0.8711478246833271  1.0000
  H   H7        1.0  0.02729662498849983  0.42032134958557577  0.6464709729107723  1.0000
  H   H8        1.0  0.029075224881063066  0.36221198768306606  0.2772386421849313  1.0000
  H   H9        1.0  0.04227212463193153  0.2519336635630762  0.050501159861189304  1.0000
  H   H10       1.0  0.006392704473916266  0.8302228373039336  0.2728494725114661  1.0000
  H   H11       1.0  0.03600668160689158  0.8728082846130482  0.7596754596043311  1.0000
  H   H12       1.0  0.02389408450704611  0.8517085843494785  0.014921614188192489  1.0000
  H   H13       1.0  0.9914193770410367  0.12270895260125525  0.8458925664299071  1.0000
  H   H14       1.0  0.10529211362737834  0.1001426572571733  0.871587969334231  1.0000
  H   H15       1.0  0.046069110608168984  0.9667301462397233  0.7857075307638026  1.0000
  C   C20       1.0  0.007181381458318148  0.5890978640997242  0.9848883332221954  1.0000
  C   C21       1.0  0.08467684668208286  0.6033088055595537  0.057186011063967035  1.0000
  C   C22       1.0  0.16120528958042613  0.6039840569076702  0.9819962299773879  1.0000
  C   C23       1.0  0.16158316865844546  0.5903154141687916  0.8336439267540814  1.0000
  C   C24       1.0  0.08540076552778952  0.5784952901912777  0.7594147348594276  1.0000
  C   C25       1.0  0.007434141506644121  0.5800639381874397  0.832585056286268  1.0000
  F   F1        1.0  0.23533252641460733  0.6161794185636862  0.05366029531691763  1.0000
  H   H16       1.0  0.8114114587353596  0.47407973777827284  0.09757425744643333  1.0000
  H   H17       1.0  0.08613712893872849  0.610467251370963  0.1731062912770056  1.0000
  H   H18       1.0  0.2210016026014472  0.590253762945899  0.7755283293242226  1.0000
  H   H19       1.0  0.08737552346483168  0.5715772850423562  0.6434999244591126  1.0000
  H   H20       1.0  0.874858525010117  0.5085701523441231  0.557412446700539  1.0000
  Zn  Zn1       1.0  0.914457227304056  0.585622040414151  0.4084250587548146  1.0000
  Zn  Zn2       1.0  0.10015021901227339  0.5835391448489671  0.40904764442321095  1.0000
  C   C26       1.0  0.007419852499793045  0.5760237293995516  0.6723618770459354  1.0000
  C   C27       1.0  0.007189610423347537  0.5931392520711387  0.14511097153675512  1.0000
  C   C28       1.0  0.0056809031745423955  0.8481563300772037  0.402542346220927  1.0000
  C   C29       1.0  0.008928507069475788  0.32100491782980334  0.4149305820125144  1.0000
  O   O2        1.0  0.0776619334608335  0.5936988362940827  0.1991194311986062  1.0000
  O   O3        1.0  0.07788422009629814  0.5738821916199774  0.6188255318418592  1.0000
  O   O4        1.0  0.07647904700882502  0.7936327029152066  0.4009443459772333  1.0000
  O   O5        1.0  0.07906704308811197  0.37394833718410814  0.41700050861252924  1.0000
  O   O6        1.0  0.9355403398603009  0.7952128487914514  0.4004721943454439  1.0000
  O   O7        1.0  0.93694550225898  0.5754640717723472  0.6183533003392667  1.0000
  O   O8        1.0  0.936723215471628  0.595280684661049  0.19864546446061992  1.0000
  O   O9        1.0  0.9381283251911845  0.37553017407826106  0.4165266501051941  1.0000
