data_image0
_chemical_formula_structural       NC9NC3OH6C8H10C7H8Zn2C4O8
_chemical_formula_sum              "N2 C31 O9 H24 Zn2"
_cell_length_a       15.78231758774541
_cell_length_b       9.275653711864159
_cell_length_c       9.274345330872308
_cell_angle_alpha    85.30210242747421
_cell_angle_beta     89.64000707228583
_cell_angle_gamma    89.08352321082864

_space_group_name_H-M_alt    "P 1"
_space_group_IT_number       1

loop_
  _space_group_symop_operation_xyz
  'x, y, z'

loop_
  _atom_site_type_symbol
  _atom_site_label
  _atom_site_symmetry_multiplicity
  _atom_site_fract_x
  _atom_site_fract_y
  _atom_site_fract_z
  _atom_site_occupancy
  N   N1        1.0  0.7961423404590067  0.5811262037497427  0.41584546709017145  1.0000
  C   C1        1.0  0.7480044416557287  0.4898138661981597  0.442313826120333  1.0000
  C   C2        1.0  0.688239334361072  0.3764730568681638  0.4751678827249739  1.0000
  C   C3        1.0  0.7085168575399478  0.23409940635198434  0.5163496304546513  1.0000
  C   C4        1.0  0.6320839285758999  0.1650989324132821  0.5363907602759876  1.0000
  C   C5        1.0  0.5698479475075182  0.2704713797213911  0.505957425224189  1.0000
  C   C6        1.0  0.47684069274953234  0.2509888497614796  0.5116860562898242  1.0000
  C   C7        1.0  0.42258024052294585  0.3704431199508509  0.4770026696212779  1.0000
  C   C8        1.0  0.3344423729978263  0.35446785199727193  0.4817079668721951  1.0000
  C   C9        1.0  0.2794704700299611  0.47739777578179354  0.44600628547241916  1.0000
  N   N2        1.0  0.23528602963469583  0.576217585260238  0.4173053090275314  1.0000
  C   C10       1.0  0.2998844273908443  0.21886050577266403  0.5211505300267325  1.0000
  C   C11       1.0  0.3532128599874751  0.09965316713552475  0.5557670514639399  1.0000
  C   C12       1.0  0.44116695664540306  0.11518957959379428  0.5511896029199475  1.0000
  O   O1        1.0  0.6057672318090261  0.39535224981656913  0.4697816687229619  1.0000
  H   H1        1.0  0.7711848957150739  0.18608633321650903  0.5301810879344315  1.0000
  H   H2        1.0  0.6238417334504047  0.05164496018261722  0.5692243324980957  1.0000
  H   H3        1.0  0.4487307109892787  0.47596972034196616  0.44630411501255485  1.0000
  H   H4        1.0  0.23182626317556174  0.20533030191828106  0.5251333136248957  1.0000
  H   H5        1.0  0.32632896111014964  0.9948479977734247  0.5862562055296621  1.0000
  H   H6        1.0  0.4806606814766226  0.020768902746183482  0.5786174931712562  1.0000
  C   C13       1.0  0.018102480254660547  0.15526637418370215  0.41523659323901563  1.0000
  C   C14       1.0  0.9987925209101892  0.23987270613053036  0.2864641224881064  1.0000
  C   C15       1.0  0.971817377231555  0.17588903344477513  0.163251352257473  1.0000
  C   C16       1.0  0.9654170061636957  0.025331582978782574  0.1678412952312569  1.0000
  C   C17       1.0  0.9856538519486019  0.939548699580191  0.29383565348495755  1.0000
  C   C18       1.0  0.01333397297177874  0.002066120431645002  0.41792660663418224  1.0000
  C   C19       1.0  0.9525866030518567  0.2679439502879011  0.025682401754587136  1.0000
  C   C20       1.0  0.03226696982725419  0.2896026459787251  0.9330782581580217  1.0000
  H   H7        1.0  0.09412531680123637  0.41743041610973775  0.6155170630397426  1.0000
  H   H8        1.0  0.002867174679630047  0.35667558836821955  0.2825896560754204  1.0000
  H   H9        1.0  0.9455502047292199  0.9740369037487422  0.07311453656246769  1.0000
  H   H10       1.0  0.9817393114452073  0.8231280753231794  0.2929417247551982  1.0000
  H   H11       1.0  0.020241345890615436  0.7010612944578962  0.6559309569724068  1.0000
  H   H12       1.0  0.9034688426683374  0.21609261157997461  0.9627649655179042  1.0000
  H   H13       1.0  0.9267560017657692  0.37520040720899606  0.051175735275428735  1.0000
  H   H14       1.0  0.08138047428214779  0.34479437506343635  0.9928224633685057  1.0000
  H   H15       1.0  0.057834198299147044  0.18363751820156682  0.9034675748278196  1.0000
  H   H16       1.0  0.016737213911495186  0.3576057525499392  0.8323021464402385  1.0000
  C   C21       1.0  0.01761688411540452  0.5818867611103038  0.9927958291017349  1.0000
  C   C22       1.0  0.9665911398095004  0.6840105642419174  0.058210310035316626  1.0000
  C   C23       1.0  0.9105647165873333  0.7745957987471841  0.9762779206301526  1.0000
  C   C24       1.0  0.9035976986217735  0.764067591918127  0.8272766591713943  1.0000
  C   C25       1.0  0.9559145099216396  0.6659830330319059  0.7598751381343725  1.0000
  C   C26       1.0  0.01381955155210246  0.5754457819325456  0.8403673640256448  1.0000
  C   C27       1.0  0.8446388114315337  0.8637687520090704  0.7388683640463518  1.0000
  H   H17       1.0  0.11666416175819605  0.2667494876791703  0.12045800612018964  1.0000
  H   H18       1.0  0.9687051544436993  0.6917235832917119  0.17405905372414754  1.0000
  H   H19       1.0  0.871882129460556  0.8520431995368927  0.02955765324006676  1.0000
  H   H20       1.0  0.9527250796938683  0.6627315520221251  0.6434619730956181  1.0000
  H   H21       1.0  0.08357246797646822  0.36623020759835967  0.5760377377831909  1.0000
  H   H22       1.0  0.8786797803213134  0.963490010909611  0.7001774036503328  1.0000
  H   H23       1.0  0.7888662706693224  0.8937602158713405  0.804351737797619  1.0000
  H   H24       1.0  0.821133212316403  0.8107516354050028  0.6440183528267336  1.0000
  Zn  Zn1       1.0  0.9228697038655282  0.5797057678606303  0.4162750606142416  1.0000
  Zn  Zn2       1.0  0.10855865114880614  0.5776261636984739  0.41688747521502467  1.0000
  C   C28       1.0  0.014567803330369111  0.5709193257711909  0.6801399704206972  1.0000
  C   C29       1.0  0.0168625685224133  0.5864144012392805  0.153022719518926  1.0000
  C   C30       1.0  0.014256732157574836  0.8420467219874281  0.41166737741467885  1.0000
  C   C31       1.0  0.017173585742700004  0.31528527286051844  0.4214953837525217  1.0000
  O   O2        1.0  0.0870774365082243  0.5871384294358033  0.20702871580069315  1.0000
  O   O3        1.0  0.08528655776912486  0.56861584157858  0.6265983637690709  1.0000
  O   O4        1.0  0.08503440719798072  0.7875546421325004  0.4098048470580846  1.0000
  O   O5        1.0  0.08732952414300987  0.3681996407280379  0.4238221241305309  1.0000
  O   O6        1.0  0.9440987675048251  0.7891322915423604  0.4093404114821624  1.0000
  O   O7        1.0  0.9443509086619778  0.5701952238622583  0.6261338567489994  1.0000
  O   O8        1.0  0.9461417955138373  0.5887177746598884  0.20656247355735058  1.0000
  O   O9        1.0  0.9463938827184821  0.3697789748172622  0.4233559900517647  1.0000
