data_image0
_chemical_formula_structural       NC9NC3OH6C6NCOH7C6SCH8Zn2C4O8
_chemical_formula_sum              "N3 C30 O10 H21 S1 Zn2"
_cell_length_a       15.78231758774541
_cell_length_b       10.299619329790078
_cell_length_c       10.302812801239593
_cell_angle_alpha    85.56660586628533
_cell_angle_beta     90.08384720459999
_cell_angle_gamma    89.65730562172189

_space_group_name_H-M_alt    "P 1"
_space_group_IT_number       1

loop_
  _space_group_symop_operation_xyz
  'x, y, z'

loop_
  _atom_site_type_symbol
  _atom_site_label
  _atom_site_symmetry_multiplicity
  _atom_site_fract_x
  _atom_site_fract_y
  _atom_site_fract_z
  _atom_site_occupancy
  N   N1        1.0  0.7982748436245243  0.4132656965503374  0.5705175209127509  1.0000
  C   C1        1.0  0.7497195883172721  0.33120251527475086  0.5945809519543173  1.0000
  C   C2        1.0  0.6894364418977855  0.22934216005257024  0.6244498692754841  1.0000
  C   C3        1.0  0.7090628291182508  0.10138913936308258  0.6618906582434181  1.0000
  C   C4        1.0  0.6323147053283025  0.03937809669699077  0.6801104576959447  1.0000
  C   C5        1.0  0.5705608449025379  0.1340779760995383  0.6524412559459747  1.0000
  C   C6        1.0  0.4774649102595744  0.11656941575318847  0.657648605557428  1.0000
  C   C7        1.0  0.42375018060886643  0.22392359888800883  0.6261171178249629  1.0000
  C   C8        1.0  0.335539633353273  0.20956699916154653  0.6303941780884341  1.0000
  C   C9        1.0  0.28112928998831305  0.3200447079445037  0.5979370215523498  1.0000
  N   N2        1.0  0.23739626465278582  0.4088545322432151  0.5718443681074574  1.0000
  C   C10       1.0  0.30036248332410415  0.08769643465907451  0.6662516875263003  1.0000
  C   C11       1.0  0.353146343302513  0.9805642032802684  0.6977223405066539  1.0000
  C   C12       1.0  0.44117111673007514  0.9945264041834906  0.6935615064581893  1.0000
  O   O1        1.0  0.6070510196401961  0.24630964293617286  0.6195522271292202  1.0000
  H   H1        1.0  0.7715110277365663  0.05823879053611214  0.6744662019130105  1.0000
  H   H2        1.0  0.6235537127363323  0.9374156762770691  0.7099612599479159  1.0000
  H   H3        1.0  0.4503824784034133  0.31876050749625295  0.5982088973287902  1.0000
  H   H4        1.0  0.2322427525868637  0.07553714075239948  0.6698720133991607  1.0000
  H   H5        1.0  0.3257839132274938  0.8863756489973817  0.7254401893848004  1.0000
  H   H6        1.0  0.48023354276872643  0.9096701323205862  0.7184967271688603  1.0000
  C   C13       1.0  0.017727213658196295  0.029692724892710798  0.5711468116292491  1.0000
  C   C14       1.0  0.976858663499157  0.03819471398355856  0.44951535606086357  1.0000
  C   C15       1.0  0.9575299863257419  0.9257376164401006  0.3873338261667121  1.0000
  C   C16       1.0  0.9771110015353209  0.803033721900296  0.44961606178700153  1.0000
  C   C17       1.0  0.01795194518179888  0.7924174805328627  0.5712263388823955  1.0000
  C   C18       1.0  0.03832923612660699  0.9063668030302889  0.6310597774957065  1.0000
  N   N3        1.0  0.9145332771603724  0.9382479699078011  0.26377484237567805  1.0000
  C   C19       1.0  0.9278560278878307  0.8534357286974844  0.1616630734845681  1.0000
  O   O2        1.0  0.9873418116488757  0.7711137682006334  0.16730068450481772  1.0000
  H   H7        1.0  0.09401272827148244  0.22086520278346855  0.8012198530778416  1.0000
  H   H8        1.0  0.9604388046324306  0.1324618192605933  0.40188216721206826  1.0000
  H   H9        1.0  0.9589924397159725  0.7158223159502415  0.40465269334349774  1.0000
  H   H10       1.0  0.06984430753221282  0.8989370826316442  0.7248168515356952  1.0000
  H   H11       1.0  0.032491719926271534  0.46083535615538684  0.6188208344895911  1.0000
  H   H12       1.0  0.8753130846702892  0.019243475825424072  0.24262984235038276  1.0000
  H   H13       1.0  0.8876318790104992  0.8627102634431889  0.07628708682904528  1.0000
  C   C20       1.0  0.01783962025778396  0.4110550935764439  0.18993810101403552  1.0000
  C   C21       1.0  0.9893023982199304  0.5408519530532103  0.17866797756862107  1.0000
  C   C22       1.0  0.9748846754659313  0.6052454198321702  0.0560840547146908  1.0000
  C   C23       1.0  0.9893023217920409  0.5408518174939028  0.9435168076343552  1.0000
  C   C24       1.0  0.017839565295201254  0.41105508537663904  0.9524350044765977  1.0000
  C   C25       1.0  0.031942617285631636  0.346779861167658  0.0761851402598317  1.0000
  S   S1        1.0  0.9385982032650312  0.7711745092519986  0.043180195882662975  1.0000
  C   C26       1.0  0.8271300562961929  0.7269200627956125  0.046350836701790854  1.0000
  H   H14       1.0  0.02856242906005746  0.36212461622266967  0.5214995328663778  1.0000
  H   H15       1.0  0.9779662567284029  0.5924076467915198  0.26475809179852017  1.0000
  H   H16       1.0  0.9779660870323174  0.5924074614195975  0.8494077782843465  1.0000
  H   H17       1.0  0.053939274009574545  0.24665333524179522  0.08397181978605683  1.0000
  H   H18       1.0  0.02856085117479612  0.3621239578342048  0.6284839425149924  1.0000
  H   H19       1.0  0.8120880291822462  0.6692973767778339  0.9626530940882279  1.0000
  H   H20       1.0  0.8120883924698776  0.6692986856059433  0.13888778735503915  1.0000
  H   H21       1.0  0.7879407488408013  0.8169527329120292  0.039305182641154346  1.0000
  Zn  Zn1       1.0  0.9249957955206567  0.4119892608549629  0.5709079110898165  1.0000
  Zn  Zn2       1.0  0.11067528113983482  0.41012036851137523  0.5714645897915862  1.0000
  C   C27       1.0  0.01783616296460311  0.4058814432069511  0.8083062311233926  1.0000
  C   C28       1.0  0.01783694179296158  0.41622980436401025  0.3340664034339087  1.0000
  C   C29       1.0  0.017905130201410158  0.6482462831934253  0.5660377333877866  1.0000
  C   C30       1.0  0.017767910736925963  0.17386340471906836  0.5763349700336899  1.0000
  O   O3        1.0  0.08830043832181111  0.417251583953097  0.3826484344299461  1.0000
  O   O4        1.0  0.08829909940118608  0.40344023785382443  0.7601463325512567  1.0000
  O   O5        1.0  0.08835384142324987  0.5991529208254462  0.5645128038328049  1.0000
  O   O6        1.0  0.08824563294266086  0.2215389109093875  0.578281865615498  1.0000
  O   O7        1.0  0.9474253803545359  0.6005707190961262  0.5640906350691093  1.0000
  O   O8        1.0  0.9473706387884052  0.40485959642214664  0.7597240947265904  1.0000
  O   O9        1.0  0.9473719777521522  0.41867089726510187  0.38222463569321086  1.0000
  O   O10       1.0  0.9473171723667929  0.22295821493265544  0.5778581642148675  1.0000
