data_image0
_chemical_formula_structural       NC9NC3OH6C8H10C7OH6Zn2C4O8
_chemical_formula_sum              "N2 C31 O10 H22 Zn2"
_cell_length_a       15.78231758774541
_cell_length_b       9.275653711864159
_cell_length_c       9.274081674992354
_cell_angle_alpha    86.25045921742758
_cell_angle_beta     89.75780300142802
_cell_angle_gamma    89.08352321082864

_space_group_name_H-M_alt    "P 1"
_space_group_IT_number       1

loop_
  _space_group_symop_operation_xyz
  'x, y, z'

loop_
  _atom_site_type_symbol
  _atom_site_label
  _atom_site_symmetry_multiplicity
  _atom_site_fract_x
  _atom_site_fract_y
  _atom_site_fract_z
  _atom_site_occupancy
  N   N1        1.0  0.7944701905914751  0.5548987632175968  0.41774745943061875  1.0000
  C   C1        1.0  0.7463602303902251  0.4640246387936009  0.4441840396064487  1.0000
  C   C2        1.0  0.686629802102735  0.3512277649180935  0.47699865046086987  1.0000
  C   C3        1.0  0.7069507945597525  0.20953592404683907  0.518130953917832  1.0000
  C   C4        1.0  0.6305390199539948  0.14086725330641459  0.5381480216450845  1.0000
  C   C5        1.0  0.5682709150642824  0.24573584289819372  0.5077512259390129  1.0000
  C   C6        1.0  0.47526970714672684  0.22634815679819842  0.5134729790062071  1.0000
  C   C7        1.0  0.42097264496876347  0.34522820493889617  0.4788312344466932  1.0000
  C   C8        1.0  0.33283974410694045  0.3293308384155571  0.48353088235018604  1.0000
  C   C9        1.0  0.2778301563295551  0.45166968114936124  0.4478720656603561  1.0000
  N   N2        1.0  0.2336154206992207  0.5500143140353178  0.41920554862976656  1.0000
  C   C10       1.0  0.29832343198670747  0.19437650770053527  0.5229260893589376  1.0000
  C   C11       1.0  0.351688403955308  0.07574228408378203  0.5575010489678898  1.0000
  C   C12       1.0  0.43963766890028266  0.09120291178937623  0.5529290962716118  1.0000
  O   O1        1.0  0.6041520141476283  0.3700177831019813  0.47161890333917955  1.0000
  H   H1        1.0  0.7696334324909707  0.16175184607628457  0.5319458048572543  1.0000
  H   H2        1.0  0.6223314822134335  0.02795687738849817  0.570942172711252  1.0000
  H   H3        1.0  0.44709071166200737  0.4502465566088818  0.4481695376157411  1.0000
  H   H4        1.0  0.23026947178746474  0.18091224325913435  0.5269040910852947  1.0000
  H   H5        1.0  0.32483668781891645  0.9714418965838818  0.5879535966695892  1.0000
  H   H6        1.0  0.4791603451640156  0.997236334176117  0.580324055621239  1.0000
  C   C13       1.0  0.016429687692045336  0.12902885306762935  0.41713931661508896  1.0000
  C   C14       1.0  0.996983802927778  0.2115032135125403  0.28852145467786583  1.0000
  C   C15       1.0  0.9698786023556152  0.14547961635168427  0.16545661808650536  1.0000
  C   C16       1.0  0.9634830761891694  0.9949981574975514  0.1700410502113172  1.0000
  C   C17       1.0  0.9838529149650287  0.9113012508580675  0.2958841351521184  1.0000
  C   C18       1.0  0.011664019845246898  0.9758731354797451  0.4198261002843877  1.0000
  C   C19       1.0  0.9505026176566266  0.2352569261852484  0.028052837764118488  1.0000
  C   C20       1.0  0.030085236388364134  0.25538245726444364  0.935559877999784  1.0000
  H   H7        1.0  0.09266392972595772  0.3945087609665383  0.6171793225522291  1.0000
  H   H8        1.0  0.0010543670150797713  0.32824194964874653  0.2846516400875161  1.0000
  H   H9        1.0  0.9435162861906555  0.942135171402129  0.07542802386199576  1.0000
  H   H10       1.0  0.9799374308776745  0.7948658266165134  0.2949912797050227  1.0000
  H   H11       1.0  0.018822617587560098  0.678808736285839  0.6575446941247887  1.0000
  H   H12       1.0  0.9013184449500145  0.1823639193300226  0.9652109424417317  1.0000
  H   H13       1.0  0.9246989257871298  0.34293545360198907  0.05351556308097427  1.0000
  H   H14       1.0  0.07926180367125357  0.31156331812686067  0.9952323521901327  1.0000
  H   H15       1.0  0.05562120938663995  0.1489270916853378  0.905984746310359  1.0000
  H   H16       1.0  0.014449106530947553  0.3217171032011483  0.8349047616701433  1.0000
  C   C21       1.0  0.015498185390784958  0.5486552632138133  0.9952057499014111  1.0000
  C   C22       1.0  0.08396375878420237  0.6106431590513799  0.06415942075864245  1.0000
  C   C23       1.0  0.14757085981720897  0.6833217995434904  0.9841218795268749  1.0000
  C   C24       1.0  0.14269299894600573  0.6944037702357111  0.8330181784282167  1.0000
  C   C25       1.0  0.07600770179880278  0.6315739739182489  0.7628649674066503  1.0000
  C   C26       1.0  0.012595535418370662  0.5562467486777987  0.8417596527228546  1.0000
  C   C27       1.0  0.21799607998339043  0.7481580901530263  0.060010067586755866  1.0000
  O   O2        1.0  0.27593351871516036  0.8146883261012092  0.9910771032796037  1.0000
  H   H17       1.0  0.8152553188735219  0.4572220863213301  0.10561075796801012  1.0000
  H   H18       1.0  0.08679375016627211  0.6052596811816042  0.18119107242745036  1.0000
  H   H19       1.0  0.19089164592033825  0.7504950725846942  0.7687510793678265  1.0000
  H   H20       1.0  0.07517981025916742  0.639032698060185  0.6458122354024503  1.0000
  H   H21       1.0  0.879150092282671  0.4887482260842648  0.5660120628947101  1.0000
  H   H22       1.0  0.22051798781567133  0.7389638937867322  0.1768963752556263  1.0000
  Zn  Zn1       1.0  0.9211980074542341  0.5534854397271627  0.4181765371694066  1.0000
  Zn  Zn2       1.0  0.10688760117002394  0.5514159747699825  0.41878821648341313  1.0000
  C   C28       1.0  0.013174628783459541  0.5490675747472789  0.6817246413695033  1.0000
  C   C29       1.0  0.01491299684191727  0.5558356377527014  0.15524026620864362  1.0000
  C   C30       1.0  0.0125801721192218  0.8157501085329286  0.4135743861183627  1.0000
  C   C31       1.0  0.01550739962883152  0.2891513729837798  0.42339059260184264  1.0000
  O   O3        1.0  0.08518487070540792  0.5574537952948366  0.20918142096824055  1.0000
  O   O4        1.0  0.08383686752970543  0.5458776496959774  0.628247318677321  1.0000
  O   O5        1.0  0.08335588117094139  0.7612271924160379  0.411714091982035  1.0000
  O   O6        1.0  0.08566579401341157  0.3421042626265616  0.4257145394125039  1.0000
  O   O7        1.0  0.9424197512441181  0.7627971525782928  0.4112502140240031  1.0000
  O   O8        1.0  0.9429007281134779  0.5474493415492132  0.627783369360918  1.0000
  O   O9        1.0  0.9442487375703303  0.5590254213599275  0.20871573851193692  1.0000
  O   O10       1.0  0.9447296605623665  0.34367587934757626  0.4252489649909106  1.0000
