data_image0
_chemical_formula_structural       NC9NC3OH6C6NCOH7C9H8Zn2C4O8
_chemical_formula_sum              "N3 C32 O10 H21 Zn2"
_cell_length_a       15.78231758774541
_cell_length_b       10.299619329790078
_cell_length_c       9.275155815604963
_cell_angle_alpha    86.05855117654023
_cell_angle_beta     90.4446892459172
_cell_angle_gamma    89.65730562172189

_space_group_name_H-M_alt    "P 1"
_space_group_IT_number       1

loop_
  _space_group_symop_operation_xyz
  'x, y, z'

loop_
  _atom_site_type_symbol
  _atom_site_label
  _atom_site_symmetry_multiplicity
  _atom_site_fract_x
  _atom_site_fract_y
  _atom_site_fract_z
  _atom_site_occupancy
  N   N1        1.0  0.7924500167944183  0.40101580207231424  0.4130831074772199  1.0000
  C   C1        1.0  0.7439928146783078  0.3191588314326401  0.43979673689945775  1.0000
  C   C2        1.0  0.683831377530214  0.21755443673513186  0.4729552331746911  1.0000
  C   C3        1.0  0.7036103277343543  0.08992226342974363  0.5145195204967246  1.0000
  C   C4        1.0  0.6269364456215463  0.02806735462605947  0.5347459366666192  1.0000
  C   C5        1.0  0.5650698392817336  0.12253012388092333  0.5040294191142776  1.0000
  C   C6        1.0  0.47199512344359923  0.10506618771443144  0.5098102742031514  1.0000
  C   C7        1.0  0.41815190991258894  0.21215016299213652  0.47480610223108677  1.0000
  C   C8        1.0  0.32995879073725615  0.19783021536716539  0.4795542116215381  1.0000
  C   C9        1.0  0.27541619159512765  0.30802978381021595  0.4435224233737689  1.0000
  N   N2        1.0  0.23157684443329063  0.3966160081305943  0.4145560854660235  1.0000
  C   C10       1.0  0.2949277521757617  0.07626693039647114  0.5193608467382402  1.0000
  C   C11       1.0  0.3478398481462325  0.9694043855537392  0.5542974839925381  1.0000
  C   C12       1.0  0.4358476670898078  0.983330930351497  0.5496784012579894  1.0000
  O   O1        1.0  0.6014259984576269  0.23447994946494788  0.46751819482749846  1.0000
  H   H1        1.0  0.7661097689283863  0.046879680234887866  0.5284800572461339  1.0000
  H   H2        1.0  0.6182970884860447  0.9263607394944297  0.5678843227902866  1.0000
  H   H3        1.0  0.44467048784424484  0.3067479131908517  0.4438242418770477  1.0000
  H   H4        1.0  0.2268227734705234  0.06413866073148311  0.5233798930491458  1.0000
  H   H5        1.0  0.3205903622116139  0.8754533582982085  0.5850680063687275  1.0000
  H   H6        1.0  0.47501169867083903  0.8986883398921497  0.5773598339047283  1.0000
  C   C13       1.0  0.011904951049410473  0.017448223096994786  0.4137817044050789  1.0000
  C   C14       1.0  0.9705407794496438  0.02490789616248401  0.2787545079704281  1.0000
  C   C15       1.0  0.9509587262125392  0.9119179364183144  0.20972468659413113  1.0000
  C   C16       1.0  0.9707935278395018  0.7897477670730232  0.27886630480622054  1.0000
  C   C17       1.0  0.012130006629085921  0.7801736602428475  0.41386999030104477  1.0000
  C   C18       1.0  0.03275110568184281  0.8946357230641272  0.48029311605618963  1.0000
  N   N3        1.0  0.9074585413527028  0.9233694559825605  0.07255767582661288  1.0000
  C   C19       1.0  0.9203652090712344  0.8376821719422826  0.9591999443753316  1.0000
  O   O2        1.0  0.9798739648577564  0.755408522733689  0.9654584472198144  1.0000
  H   H7        1.0  0.08912796272496859  0.21059230296344222  0.669193576414866  1.0000
  H   H8        1.0  0.9539268258105302  0.11876681068126493  0.22587529249578608  1.0000
  H   H9        1.0  0.9524917501789567  0.7021510492867848  0.22895094734532884  1.0000
  H   H10       1.0  0.0646482165516391  0.8880094502630299  0.584376017920484  1.0000
  H   H11       1.0  0.026863718479492427  0.44899939504339753  0.4667062510982998  1.0000
  H   H12       1.0  0.8681521876362515  0.004183760645297463  0.04908389547362679  1.0000
  H   H13       1.0  0.8797931718182194  0.8462250804926416  0.8644211713427588  1.0000
  C   C20       1.0  0.010464015962097006  0.3955438385693686  0.990589009634605  1.0000
  C   C21       1.0  0.9441965900372306  0.45948794621559097  0.05818885914114369  1.0000
  C   C22       1.0  0.8836071727869914  0.532006252437583  0.9767091041987204  1.0000
  C   C23       1.0  0.8881616014096524  0.5420975412460614  0.826143746460636  1.0000
  C   C24       1.0  0.9527236952968221  0.4774727612524521  0.7568297319409818  1.0000
  C   C25       1.0  0.013570955122142792  0.4020779721426859  0.8370626098867144  1.0000
  C   C26       1.0  0.8258602919310434  0.6176670918294929  0.7423459789926858  1.0000
  C   C27       1.0  0.7736941696437992  0.680946243203914  0.6721501518655262  1.0000
  C   C28       1.0  0.7103999608650429  0.7577247884988703  0.5869679097127856  1.0000
  H   H14       1.0  0.20710715859491402  0.28879375154202536  0.10419443688215213  1.0000
  H   H15       1.0  0.9403887252905506  0.45592612275165156  0.17496721158350637  1.0000
  H   H16       1.0  0.8336190236202514  0.5813194762280258  0.031360058869676966  1.0000
  H   H17       1.0  0.9542910796728796  0.4835638753801055  0.6396893940553849  1.0000
  H   H18       1.0  0.14477738600315804  0.32555559273526513  0.5639117001485854  1.0000
  H   H19       1.0  0.7276195344655367  0.7612836195847046  0.4710271093591927  1.0000
  H   H20       1.0  0.6472786197176582  0.7121112522093218  0.6017771580748352  1.0000
  H   H21       1.0  0.7082851364524214  0.8580254864422281  0.6234770464436079  1.0000
  Zn  Zn1       1.0  0.9191725594446953  0.3997427118103709  0.4135164928287185  1.0000
  Zn  Zn2       1.0  0.10485431340719709  0.3978785899032553  0.4141344807008822  1.0000
  C   C29       1.0  0.012980272850682484  0.3956692698278286  0.6770604045794668  1.0000
  C   C30       1.0  0.011048628642982505  0.4019536512359503  0.1505907173482739  1.0000
  C   C31       1.0  0.01206204922202292  0.6359579993505318  0.408109943690828  1.0000
  C   C32       1.0  0.01196678873302015  0.161663362644908  0.41954125468536496  1.0000
  O   O3        1.0  0.08171008626736587  0.4033917526491484  0.2045232746118677  1.0000
  O   O4        1.0  0.08324696828855327  0.39281536009797047  0.6235964708101596  1.0000
  O   O5        1.0  0.08250454669118246  0.5868515691580722  0.4064170677681702  1.0000
  O   O6        1.0  0.08245244411022479  0.20935555268115436  0.42170256937928285  1.0000
  O   O7        1.0  0.9415743653775702  0.5882657496699597  0.40594840393184817  1.0000
  O   O8        1.0  0.9423167871494658  0.39423110031568487  0.6231277303069156  1.0000
  O   O9        1.0  0.9407798988110271  0.4048074342343706  0.20405280128729464  1.0000
  O   O10       1.0  0.9415222570443005  0.21077122581175756  0.42123220411081497  1.0000
