data_image0
_chemical_formula_structural       NC9NC3OH6C7NH5C7NH5Zn2C4O8
_chemical_formula_sum              "N4 C30 O9 H16 Zn2"
_cell_length_a       15.78231758774541
_cell_length_b       10.302819778424748
_cell_length_c       10.302823150593486
_cell_angle_alpha    85.56070276465681
_cell_angle_beta     90.08385050025007
_cell_angle_gamma    89.6314472413266

_space_group_name_H-M_alt    "P 1"
_space_group_IT_number       1

loop_
  _space_group_symop_operation_xyz
  'x, y, z'

loop_
  _atom_site_type_symbol
  _atom_site_label
  _atom_site_symmetry_multiplicity
  _atom_site_fract_x
  _atom_site_fract_y
  _atom_site_fract_z
  _atom_site_occupancy
  N   N1        1.0  0.7978583440199722  0.41284206580671756  0.5703717429314166  1.0000
  C   C1        1.0  0.7493272711050014  0.33080348474763444  0.5944436978529029  1.0000
  C   C2        1.0  0.6890741409124109  0.228973664373749  0.624323195380615  1.0000
  C   C3        1.0  0.708738233347905  0.10105900037638516  0.6617772748725199  1.0000
  C   C4        1.0  0.6320083829839721  0.03906654686287614  0.6800035153585244  1.0000
  C   C5        1.0  0.570226616385317  0.13373803792230032  0.6523244770583616  1.0000
  C   C6        1.0  0.477135841170669  0.11623472614434416  0.6575336452056475  1.0000
  C   C7        1.0  0.423389476368973  0.22355672753826306  0.6259910066759908  1.0000
  C   C8        1.0  0.3351831597211736  0.2092044315118664  0.6302695580880702  1.0000
  C   C9        1.0  0.2807402607637863  0.3196490222096904  0.5978009263248292  1.0000
  N   N2        1.0  0.23698106493214183  0.4084322238408016  0.5716990482790982  1.0000
  C   C10       1.0  0.30004192253534745  0.08737040034831622  0.6661397260660986  1.0000
  C   C11       1.0  0.35285735226012294  0.9802702841754537  0.6976215067853184  1.0000
  C   C12       1.0  0.44087801130142534  0.994228299608187  0.6934592225537641  1.0000
  O   O1        1.0  0.606683718676994  0.24593606088474118  0.6194237907486708  1.0000
  H   H1        1.0  0.7711991475154695  0.057921586803341585  0.6743573006345431  1.0000
  H   H2        1.0  0.6232774366936785  0.9371346918887473  0.7098649084666853  1.0000
  H   H3        1.0  0.44999382760335144  0.3183652067310556  0.5980729355957601  1.0000
  H   H4        1.0  0.2319257749029788  0.07521475145200407  0.6697613148664678  1.0000
  H   H5        1.0  0.32552267768809917  0.8861099649497693  0.7253491389033935  1.0000
  H   H6        1.0  0.479965442802757  0.9093974652498373  0.7184032572090022  1.0000
  C   C13       1.0  0.017423741190350395  0.02938408135184778  0.5710409873839675  1.0000
  C   C14       1.0  0.96796588184073  0.0199817568654157  0.6845798250126349  1.0000
  C   C15       1.0  0.9433601094802486  0.8982014317571557  0.7410664704814083  1.0000
  C   C16       1.0  0.9679659502265344  0.784680746367996  0.6845798294739929  1.0000
  C   C17       1.0  0.017423755156893206  0.7918801083938685  0.5710410260137124  1.0000
  C   C18       1.0  0.041894294272133425  0.9147392008549653  0.5148648412520465  1.0000
  C   C19       1.0  0.8926586352243604  0.8896917786821595  0.8574604634811764  1.0000
  N   N3        1.0  0.8519112406077706  0.8828528324076161  0.9510030541857595  1.0000
  H   H7        1.0  0.03615717161157739  0.36026788379969  0.5280346830653613  1.0000
  H   H8        1.0  0.948460253461371  0.10713225707861085  0.7293580676950993  1.0000
  H   H9        1.0  0.9484603592127202  0.6909826518922698  0.7293580371721611  1.0000
  H   H10       1.0  0.08003444774468704  0.9211404971021266  0.42730777780568086  1.0000
  H   H11       1.0  0.03615724934348297  0.4672848024321444  0.5280347819738629  1.0000
  C   C20       1.0  0.01742375771703819  0.4106321353742344  0.18979293480101367  1.0000
  C   C21       1.0  0.9286320919696214  0.42093383596805767  0.18769509811011997  1.0000
  C   C22       1.0  0.8844574012939417  0.4260589225443199  0.06954889683285082  1.0000
  C   C23       1.0  0.9286320754934904  0.42093375135811506  0.9523941042117672  1.0000
  C   C24       1.0  0.017423757211109336  0.41063212863448206  0.952289101414411  1.0000
  C   C25       1.0  0.0613556626811369  0.4055350736941927  0.07153399509348679  1.0000
  C   C26       1.0  0.793432956500189  0.4366194651967532  0.0685274023549951  1.0000
  N   N4        1.0  0.7202790441892143  0.44510684975075865  0.0677064198756343  1.0000
  H   H12       1.0  0.05105619464200717  0.4067303894751775  0.5179097781429098  1.0000
  H   H13       1.0  0.8936137893222804  0.4249966943140775  0.2777263764577722  1.0000
  H   H14       1.0  0.893613822927397  0.4249965983853201  0.8615768400616015  1.0000
  H   H15       1.0  0.12982859699329885  0.3975907953945268  0.07230242819787458  1.0000
  H   H16       1.0  0.051056166252930746  0.4067301813492161  0.6249270777494851  1.0000
  Zn  Zn1       1.0  0.924579672057  0.4115660127501801  0.5707622656753655  1.0000
  Zn  Zn2       1.0  0.1102597084020196  0.40969768064733847  0.5713191384897818  1.0000
  C   C27       1.0  0.01742184822668036  0.4054600199558711  0.8081609839466857  1.0000
  C   C28       1.0  0.017419559852582145  0.4158052911611625  0.333920553725668  1.0000
  C   C29       1.0  0.017419388903632482  0.6477522102609208  0.5658674834577984  1.0000
  C   C30       1.0  0.017421955815987156  0.1735115416651971  0.5762141232411211  1.0000
  O   O2        1.0  0.0878827571241334  0.4168267631847382  0.38250242958936664  1.0000
  O   O3        1.0  0.08788550219741098  0.40301954767172754  0.7600013879363223  1.0000
  O   O4        1.0  0.08788256636631298  0.598673565103917  0.5643476691760463  1.0000
  O   O5        1.0  0.08788562959521551  0.22117275567748695  0.5781560508158059  1.0000
  O   O6        1.0  0.9469536875003203  0.6000909383590147  0.5639253531524793  1.0000
  O   O7        1.0  0.9469566233275771  0.4044384807567245  0.759579002689327  1.0000
  O   O8        1.0  0.9469538783106984  0.41824565102702516  0.3820784834365818  1.0000
  O   O9        1.0  0.9469567507783125  0.22259163423381945  0.5777322019999958  1.0000
