data_image0
_chemical_formula_structural       NC9NC3OH6C6ClH5C7F3H5Zn2C4O8
_chemical_formula_sum              "N2 C29 O9 H16 Cl1 F3 Zn2"
_cell_length_a       15.78231758774541
_cell_length_b       10.30297070629231
_cell_length_c       9.272291681409872
_cell_angle_alpha    86.0604796427724
_cell_angle_beta     90.49794672891421
_cell_angle_gamma    89.63144908567993

_space_group_name_H-M_alt    "P 1"
_space_group_IT_number       1

loop_
  _space_group_symop_operation_xyz
  'x, y, z'

loop_
  _atom_site_type_symbol
  _atom_site_label
  _atom_site_symmetry_multiplicity
  _atom_site_fract_x
  _atom_site_fract_y
  _atom_site_fract_z
  _atom_site_occupancy
  N   N1        1.0  0.7911704442822011  0.40039165838934476  0.4124326261502116  1.0000
  C   C1        1.0  0.742751980421671  0.31856356937702346  0.4391639480164393  1.0000
  C   C2        1.0  0.6826386270762594  0.21699502384311176  0.47234440503451647  1.0000
  C   C3        1.0  0.7024779303891154  0.08940787295131614  0.5139362515458232  1.0000
  C   C4        1.0  0.6258333427209548  0.027574793078081417  0.5341760493657608  1.0000
  C   C5        1.0  0.5639220930715634  0.12200424574722013  0.5034391489170607  1.0000
  C   C6        1.0  0.4708556864479451  0.10454648076360695  0.5092238037425685  1.0000
  C   C7        1.0  0.41696176459075524  0.21159266691415968  0.4741964690017231  1.0000
  C   C8        1.0  0.328775463091099  0.1972777804050838  0.4789476965236654  1.0000
  C   C9        1.0  0.27418067526389445  0.30743845919730517  0.4428920687660536  1.0000
  N   N2        1.0  0.23029937435593054  0.395993421095137  0.41390656652964264  1.0000
  C   C10       1.0  0.29380202722922777  0.07575740217489768  0.518780647707124  1.0000
  C   C11       1.0  0.3467647293158254  0.9689325688752659  0.5537404013256213  1.0000
  C   C12       1.0  0.43476591710906626  0.9828541914353264  0.5491182856865162  1.0000
  O   O1        1.0  0.6002252853400432  0.23391457468041743  0.46690373505929617  1.0000
  H   H1        1.0  0.7649976941465095  0.046380466581804836  0.5279060649258707  1.0000
  H   H2        1.0  0.617242088581617  0.9259040570319571  0.567336401870771  1.0000
  H   H3        1.0  0.44343551456047353  0.306157027471363  0.4431941284736054  1.0000
  H   H4        1.0  0.2257028214607605  0.06363341874709905  0.5228023341905279  1.0000
  H   H5        1.0  0.31955976513142414  0.8750147030452073  0.5845312640070435  1.0000
  H   H6        1.0  0.47397003727385756  0.8982414722037407  0.5768180309311037  1.0000
  C   C13       1.0  0.010738964249955574  0.01694510912744862  0.4131758188331547  1.0000
  C   C14       1.0  0.0983510648769097  0.013143168728003918  0.4412383861156708  1.0000
  C   C15       1.0  0.14182185037960982  0.8942999026780611  0.45516218222281224  1.0000
  C   C16       1.0  0.09835106391481152  0.778035199533909  0.4412383183098758  1.0000
  C   C17       1.0  0.010738973640427085  0.7794300514958473  0.41317590139317617  1.0000
  C   C18       1.0  0.9673599926242783  0.8994741582446232  0.3992813784444418  1.0000
  Cl  Cl1       1.0  0.2512702377536411  0.8910538894472259  0.49021891542203666  1.0000
  H   H7        1.0  0.9777370170144971  0.3456803454910353  0.40260433408132545  1.0000
  H   H8        1.0  0.13319652599916143  0.10215630817279919  0.4523994273507652  1.0000
  H   H9        1.0  0.1331964920539166  0.6869551148691742  0.4523993236571975  1.0000
  H   H10       1.0  0.899790881723453  0.9014780025684646  0.3776386385022712  1.0000
  H   H11       1.0  0.977737014028963  0.4526523809877854  0.4026046062637283  1.0000
  C   C19       1.0  0.00895547614530301  0.39487286831431523  0.9898091381247967  1.0000
  C   C20       1.0  0.06594213829394113  0.31259484131228676  0.07021978434914478  1.0000
  C   C21       1.0  0.12753312077946832  0.24190408628128623  0.0016294902822688861  1.0000
  C   C22       1.0  0.1346026486613281  0.25315196756230485  0.8507608795360642  1.0000
  C   C23       1.0  0.07592764721204603  0.33114582293383465  0.7691743688274242  1.0000
  C   C24       1.0  0.0125224660961194  0.40150229086898515  0.8365424915051927  1.0000
  C   C25       1.0  0.19965457278742504  0.17387353856382637  0.7763938902870628  1.0000
  F   F1        1.0  0.2706026378085227  0.1512417907776964  0.8635511679038954  1.0000
  F   F2        1.0  0.2250158815281662  0.23859001769222665  0.6484065895564357  1.0000
  F   F3        1.0  0.16474428763935922  0.05591706407101982  0.7463176534027243  1.0000
  H   H12       1.0  0.8896337026322284  0.6584145528244829  0.0694992854364409  1.0000
  H   H13       1.0  0.0639864876536933  0.30486338350571685  0.18725990746038135  1.0000
  H   H14       1.0  0.17021766739988053  0.17914815484748314  0.06698609865600402  1.0000
  H   H15       1.0  0.07834346004166437  0.33458461714222754  0.6521946844068229  1.0000
  H   H16       1.0  0.8204989004803863  0.5277957631084291  0.7225556537933602  1.0000
  Zn  Zn1       1.0  0.9178935991930574  0.3991190193714891  0.4128662921799844  1.0000
  Zn  Zn2       1.0  0.10357624060011217  0.39725555629112375  0.4134846859276098  1.0000
  C   C26       1.0  0.011846347725277928  0.3950771477071182  0.6764917813612761  1.0000
  C   C27       1.0  0.009625520312727565  0.4012990468120754  0.1498593450027612  1.0000
  C   C28       1.0  0.010710422729819369  0.6352592004112498  0.40743074783153155  1.0000
  C   C29       1.0  0.010761382271422981  0.16111543554000796  0.4189204551848775  1.0000
  O   O2        1.0  0.0803159879768014  0.40274289255552276  0.20380833371191232  1.0000
  O   O3        1.0  0.08208470673694168  0.3922179939435211  0.6230117241825082  1.0000
  O   O4        1.0  0.0811664893426165  0.5861680602887147  0.4057430327922351  1.0000
  O   O5        1.0  0.08123414155483855  0.20879283528712755  0.42107691679323644  1.0000
  O   O6        1.0  0.9402356348739263  0.5875817410127473  0.40527406109574704  1.0000
  O   O7        1.0  0.9411538519406096  0.39363323387275284  0.6225426756150378  1.0000
  O   O8        1.0  0.9393851259348097  0.4041580736716186  0.2033375517966174  1.0000
  O   O9        1.0  0.9403032799647303  0.21020800796368766  0.4206062429682804  1.0000
