data_image0
_chemical_formula_structural       NC9NC3OH6C6OCH8C6BrH5Zn2C4O8
_chemical_formula_sum              "N2 C29 O10 H19 Br1 Zn2"
_cell_length_a       15.78231758774541
_cell_length_b       9.273888216677433
_cell_length_c       10.302972455390005
_cell_angle_alpha    85.76054877511693
_cell_angle_beta     90.08385913268748
_cell_angle_gamma    89.05820199757643

_space_group_name_H-M_alt    "P 1"
_space_group_IT_number       1

loop_
  _space_group_symop_operation_xyz
  'x, y, z'

loop_
  _atom_site_type_symbol
  _atom_site_label
  _atom_site_symmetry_multiplicity
  _atom_site_fract_x
  _atom_site_fract_y
  _atom_site_fract_z
  _atom_site_occupancy
  N   N1        1.0  0.788638018334017  0.5693626230292572  0.5753009646571094  1.0000
  C   C1        1.0  0.7406423303186745  0.47823546009666207  0.5990875520988121  1.0000
  C   C2        1.0  0.6810537429236195  0.3651245004382693  0.6286128392142003  1.0000
  C   C3        1.0  0.7015526081943932  0.2230389075675645  0.6656219744989296  1.0000
  C   C4        1.0  0.625227321431683  0.15417866719333317  0.6836325765240039  1.0000
  C   C5        1.0  0.562827727400059  0.25933826747038036  0.6562828472623363  1.0000
  C   C6        1.0  0.4698511790441091  0.23989586460091594  0.6614311298715772  1.0000
  C   C7        1.0  0.41540442939154754  0.3591074523769948  0.6302618068047723  1.0000
  C   C8        1.0  0.3272917760300579  0.3431651481446687  0.6344904334315791  1.0000
  C   C9        1.0  0.27212811416043936  0.46584525890754036  0.6024059790577436  1.0000
  N   N2        1.0  0.22778951793829672  0.5644642400740922  0.5766129300861296  1.0000
  C   C10       1.0  0.2929456294062015  0.2078338264118036  0.6699368055043418  1.0000
  C   C11       1.0  0.3464599959562765  0.08886870524274304  0.7010460425167935  1.0000
  C   C12       1.0  0.4343895647918605  0.1043730488054373  0.6969323115750106  1.0000
  O   O1        1.0  0.5985526238646628  0.38396606316543314  0.6237724363814807  1.0000
  H   H1        1.0  0.7642950377041007  0.17512254839971897  0.6780519498490449  1.0000
  H   H2        1.0  0.6171615838134292  0.040954369105356436  0.7131394049935706  1.0000
  H   H3        1.0  0.44139005918712015  0.4644192168984824  0.6026735241524459  1.0000
  H   H4        1.0  0.22490880970978064  0.1943315231920082  0.6735161106367593  1.0000
  H   H5        1.0  0.3197398129222424  0.9842769065978579  0.7284461408056713  1.0000
  H   H6        1.0  0.4740306034811103  0.010144294917276753  0.7215812652591558  1.0000
  C   C13       1.0  0.010705856626804566  0.14342352854694873  0.5746379892708671  1.0000
  C   C14       1.0  0.9909183540833902  0.22690701575168815  0.45862015921007826  1.0000
  C   C15       1.0  0.9639220163880933  0.16248349097858528  0.34767412068137027  1.0000
  C   C16       1.0  0.9565564705457579  0.011584763191015979  0.3523285288618423  1.0000
  C   C17       1.0  0.9772306950189783  0.9268962811865761  0.46585174986736333  1.0000
  C   C18       1.0  0.005729811002855412  0.9903921664783668  0.5772871088155254  1.0000
  O   O2        1.0  0.9446480878106138  0.25212835124808697  0.23547460815587784  1.0000
  C   C19       1.0  0.9163668165277614  0.20151918538680835  0.11591684026946014  1.0000
  H   H7        1.0  0.017607311995097907  0.22003114868290918  0.894139298452354  1.0000
  H   H8        1.0  0.9944972217313264  0.3437426656820042  0.4547827780592726  1.0000
  H   H9        1.0  0.9356411774137224  0.9583810983697102  0.26830240992164  1.0000
  H   H10       1.0  0.9728274557471375  0.8104769770788417  0.4654063020234749  1.0000
  H   H11       1.0  0.013928781364727527  0.6913700776846244  0.7915946272809284  1.0000
  H   H12       1.0  0.8555598077096217  0.14407341976493604  0.1306973165960692  1.0000
  H   H13       1.0  0.9650155722489175  0.12836824317866968  0.07713400014845195  1.0000
  H   H14       1.0  0.9060611387340661  0.2953195437575733  0.04411022265488285  1.0000
  C   C20       1.0  0.008217816855048188  0.5669078379790495  0.19471999576826615  1.0000
  C   C21       1.0  0.033780669927817586  0.42072069077853436  0.203288483903318  1.0000
  C   C22       1.0  0.04646127155235846  0.34820397237471123  0.09060108156682167  1.0000
  C   C23       1.0  0.03378081307913239  0.42072063289829953  0.9682060935526118  1.0000
  C   C24       1.0  0.008217856923885547  0.5669078414784214  0.9572050779748791  1.0000
  C   C25       1.0  0.995559830743337  0.6392954425551471  0.07111742027731371  1.0000
  Br  Br1       1.0  0.08123098222406866  0.14936418641694527  0.10391009365917125  1.0000
  H   H15       1.0  0.9985965387622565  0.6219315578462583  0.5187964438637014  1.0000
  H   H16       1.0  0.04395664756521844  0.36252626400334864  0.29718291496829563  1.0000
  H   H17       1.0  0.04395698211535315  0.36252630858001633  0.8821020134903672  1.0000
  H   H18       1.0  0.9758447345367307  0.7520405767098173  0.06357101683139588  1.0000
  H   H19       1.0  0.9985953510254488  0.621931029634603  0.6257628146255776  1.0000
  Zn  Zn1       1.0  0.9153676739122784  0.567945203405569  0.575687048475038  1.0000
  Zn  Zn2       1.0  0.10105990301894519  0.565869889550848  0.5762374222554818  1.0000
  C   C26       1.0  0.008249720872249178  0.5611627808562807  0.8130611118968853  1.0000
  C   C27       1.0  0.00817987312201729  0.5726541090375254  0.33886349795918846  1.0000
  C   C28       1.0  0.006666042697482499  0.8302971142896565  0.5716128955521658  1.0000
  C   C29       1.0  0.009763498112403957  0.3035180436794225  0.5803117779125306  1.0000
  O   O3        1.0  0.07863640902461233  0.5737887478013102  0.38744821836467613  1.0000
  O   O4        1.0  0.07872929662757921  0.5584519389666041  0.7648937353310246  1.0000
  O   O5        1.0  0.07744950651423399  0.7757813274991165  0.5699225942209187  1.0000
  O   O6        1.0  0.07991613571316236  0.3564593702932559  0.58241926197684  1.0000
  O   O7        1.0  0.9365113778504071  0.7773557233729338  0.5695052085590406  1.0000
  O   O8        1.0  0.9377911577804783  0.5600280674749207  0.7644762858658842  1.0000
  O   O9        1.0  0.9376982705290112  0.5753648260546176  0.38702920785919104  1.0000
  O   O10       1.0  0.9389779972747027  0.358035438231878  0.5820003487746577  1.0000
