data_image0
_chemical_formula_structural       NC9NC3OH6C6NCOH7C7H8Zn2C4O8
_chemical_formula_sum              "N3 C30 O10 H21 Zn2"
_cell_length_a       15.78231758774541
_cell_length_b       10.299619329790078
_cell_length_c       9.274345330872308
_cell_angle_alpha    85.12981543555203
_cell_angle_beta     89.64000707228583
_cell_angle_gamma    89.65730562172189

_space_group_name_H-M_alt    "P 1"
_space_group_IT_number       1

loop_
  _space_group_symop_operation_xyz
  'x, y, z'

loop_
  _atom_site_type_symbol
  _atom_site_label
  _atom_site_symmetry_multiplicity
  _atom_site_fract_x
  _atom_site_fract_y
  _atom_site_fract_z
  _atom_site_occupancy
  N   N1        1.0  0.8054649035018211  0.4241419472357948  0.4109876836583577  1.0000
  C   C1        1.0  0.7567886131258826  0.34189567878552096  0.43773658674592975  1.0000
  C   C2        1.0  0.6963552310042093  0.23980806521128573  0.47093886672730423  1.0000
  C   C3        1.0  0.7157932972634378  0.11157017540823189  0.5125580370731928  1.0000
  C   C4        1.0  0.6389535309028862  0.04942050697429479  0.5328111609518609  1.0000
  C   C5        1.0  0.5773388419746739  0.14433090814181848  0.5020540841724956  1.0000
  C   C6        1.0  0.48421671522648635  0.12678272755485054  0.5078425725164584  1.0000
  C   C7        1.0  0.43066058373149807  0.23437681874736316  0.47279217973972854  1.0000
  C   C8        1.0  0.342428523571869  0.21998767690842103  0.4775465587096128  1.0000
  C   C9        1.0  0.288181434323245  0.3307123367216904  0.4414671927546012  1.0000
  N   N2        1.0  0.24457965070866994  0.4197206875809347  0.41246260662183354  1.0000
  C   C10       1.0  0.3070710162150093  0.09784428971150705  0.5174057559811231  1.0000
  C   C11       1.0  0.359696584026416  0.9904726131376341  0.5523885248647447  1.0000
  C   C12       1.0  0.44774228575942127  0.004466471843476594  0.5477633429223363  1.0000
  O   O1        1.0  0.6139944430746406  0.2568128119190556  0.4654946491133769  1.0000
  H   H1        1.0  0.7781782429819827  0.06832414526480068  0.5265370078322007  1.0000
  H   H2        1.0  0.6300423937245242  0.9472309660312441  0.5659933042274805  1.0000
  H   H3        1.0  0.4574332552482638  0.3294260677002716  0.44176940979020607  1.0000
  H   H4        1.0  0.23893307583883863  0.08565745047123574  0.5214301091895786  1.0000
  H   H5        1.0  0.3321947377668549  0.8960731669569658  0.5831996777779265  1.0000
  H   H6        1.0  0.4866792917718839  0.9194204797739142  0.5754813271576189  1.0000
  C   C13       1.0  0.024914108307518834  0.04056418760511704  0.4116872030394654  1.0000
  C   C14       1.0  0.9846573442048272  0.049991612454256096  0.27648171169539837  1.0000
  C   C15       1.0  0.9656414298177645  0.9380076245270602  0.20736074078719757  1.0000
  C   C16       1.0  0.9849091757078847  0.8148298541491343  0.27659365615187226  1.0000
  C   C17       1.0  0.02513843982222297  0.8032883381603135  0.4117756055113968  1.0000
  C   C18       1.0  0.04521477849053368  0.9167824165485944  0.47828643882103705  1.0000
  N   N3        1.0  0.9232662018561397  0.9514580793963601  0.07001260962019362  1.0000
  C   C19       1.0  0.9371025578521093  0.8674227579543112  0.9565051964233495  1.0000
  O   O2        1.0  0.9965599853643766  0.7850579035629072  0.9627719632267038  1.0000
  H   H7        1.0  0.10004239366590428  0.22998614940955053  0.6674363303414172  1.0000
  H   H8        1.0  0.9684770723809503  0.1446211359563807  0.22353267254684517  1.0000
  H   H9        1.0  0.9670167721773739  0.7279605530335278  0.2266123886049236  1.0000
  H   H10       1.0  0.07625826735761221  0.9086393432717494  0.5825067756025164  1.0000
  H   H11       1.0  0.03943882214443617  0.4713440899561769  0.464681633263617  1.0000
  H   H12       1.0  0.8841523652105748  0.03261446753841257  0.04650783361853672  1.0000
  H   H13       1.0  0.8973078360332531  0.8773468778799448  0.8616012739897778  1.0000
  C   C20       1.0  0.02694393152127894  0.4248269916287628  0.9879357089665399  1.0000
  C   C21       1.0  0.976520324850314  0.5168112946566072  0.05303642916573548  1.0000
  C   C22       1.0  0.9210280060895242  0.5984026514712595  0.9708257296229599  1.0000
  C   C23       1.0  0.9139989121988051  0.5889197519159448  0.8218568145693022  1.0000
  C   C24       1.0  0.9657374018684465  0.5005736512980992  0.7547566442681952  1.0000
  C   C25       1.0  0.0231086219550658  0.4190255137919128  0.8355270328749476  1.0000
  C   C26       1.0  0.8556278783678894  0.678721947298482  0.7331422019330609  1.0000
  H   H14       1.0  0.12413311137798888  0.1409785491916984  0.11656610004785173  1.0000
  H   H15       1.0  0.9786798166299627  0.5237585161640308  0.16886147571005017  1.0000
  H   H16       1.0  0.882802060737864  0.6681605821838317  0.02386751620459404  1.0000
  H   H17       1.0  0.9625288004090403  0.49764499798396944  0.6383534689383836  1.0000
  H   H18       1.0  0.09162797120646116  0.2305821911034842  0.5718401914704576  1.0000
  H   H19       1.0  0.8902568191226629  0.7685422459530851  0.6941448622751354  1.0000
  H   H20       1.0  0.800032171884902  0.7057356680526958  0.7985334312142034  1.0000
  H   H21       1.0  0.8318096821869979  0.6309687069193892  0.6384550781983456  1.0000
  Zn  Zn1       1.0  0.9321838918000853  0.4228625412476794  0.4114216412679206  1.0000
  Zn  Zn2       1.0  0.11786057741768485  0.4209894134012431  0.4120404451541506  1.0000
  C   C27       1.0  0.023830185052299502  0.41494847296087634  0.6753135461571882  1.0000
  C   C28       1.0  0.0262163115901759  0.4289050988755927  0.14814868885897337  1.0000
  C   C29       1.0  0.02511772266725809  0.6591566184464457  0.40600795312237614  1.0000
  C   C30       1.0  0.02492870980961359  0.18469539320760076  0.41745435844318335  1.0000
  O   O3        1.0  0.09643544855748298  0.4295572409520467  0.20215246066797588  1.0000
  O   O4        1.0  0.09453535779431776  0.4128736933160182  0.6217790166302846  1.0000
  O   O5        1.0  0.09557410403194266  0.6100748585404485  0.4043128418636732  1.0000
  O   O6        1.0  0.09539663945334587  0.23235608639760974  0.41961852701704294  1.0000
  O   O7        1.0  0.9546477664021189  0.6114958688919847  0.4038435591862699  1.0000
  O   O8        1.0  0.9536090209677924  0.41429626449064894  0.6213096571847256  1.0000
  O   O9        1.0  0.9555091196252086  0.4309797787465959  0.20168136611300613  1.0000
  O   O10       1.0  0.9544703100252782  0.23377861416283818  0.4191475406608596  1.0000
