data_image0
_chemical_formula_structural       NC9NC3OH6C7OH6C6SCH8Zn2C4O8
_chemical_formula_sum              "N2 C30 O10 H20 S1 Zn2"
_cell_length_a       15.78231758774541
_cell_length_b       9.274078303013075
_cell_length_c       10.302812801239593
_cell_angle_alpha    85.73623522774189
_cell_angle_beta     90.08384720459999
_cell_angle_gamma    89.04960325712263

_space_group_name_H-M_alt    "P 1"
_space_group_IT_number       1

loop_
  _space_group_symop_operation_xyz
  'x, y, z'

loop_
  _atom_site_type_symbol
  _atom_site_label
  _atom_site_symmetry_multiplicity
  _atom_site_fract_x
  _atom_site_fract_y
  _atom_site_fract_z
  _atom_site_occupancy
  N   N1        1.0  0.7884987372809144  0.5693839939266101  0.5746772540582579  1.0000
  C   C1        1.0  0.7405111447910668  0.47825559287720654  0.5984991445770402  1.0000
  C   C2        1.0  0.6809326059108989  0.36514309641488585  0.628068251397701  1.0000
  C   C3        1.0  0.7014440937464147  0.22305557307458557  0.6651324300633195  1.0000
  C   C4        1.0  0.6251249243626065  0.15419439711566096  0.6831697094205835  1.0000
  C   C5        1.0  0.5627159881828446  0.2593554261591795  0.6557792423969908  1.0000
  C   C6        1.0  0.4697411670348788  0.2399127591282526  0.660935058217607  1.0000
  C   C7        1.0  0.415283826908788  0.35912596659808504  0.6297195512345406  1.0000
  C   C8        1.0  0.32717258981546704  0.34318344575935145  0.633954355025018  1.0000
  C   C9        1.0  0.2719980293381148  0.46586522334220026  0.6018223728621503  1.0000
  N   N2        1.0  0.2276506720416402  0.5644855444170265  0.5759911176601245  1.0000
  C   C10       1.0  0.2928384656954673  0.20785028531554084  0.6694531569474749  1.0000
  C   C11       1.0  0.3463634008229751  0.08888354780119001  0.700608482459748  1.0000
  C   C12       1.0  0.4342915922977211  0.1043881020198274  0.6964887440311824  1.0000
  O   O1        1.0  0.5984298130007435  0.38398491513287203  0.623220550462859  1.0000
  H   H1        1.0  0.7641907800446665  0.17513856288556373  0.6775809672282653  1.0000
  H   H2        1.0  0.6170692453344697  0.04096856068615451  0.7127204007586252  1.0000
  H   H3        1.0  0.44126010106523444  0.46443916196294355  0.6020904687894209  1.0000
  H   H4        1.0  0.2248028455048743  0.19434779864147567  0.6730376937836291  1.0000
  H   H5        1.0  0.3196525094680054  0.9842903280949018  0.7280491016194246  1.0000
  H   H6        1.0  0.4739410020434553  0.010158067871974596  0.7211742031807158  1.0000
  C   C13       1.0  0.010604430161530676  0.14343911767884476  0.5741775559315263  1.0000
  C   C14       1.0  0.9942200245180833  0.22708617161996858  0.4569314683103758  1.0000
  C   C15       1.0  0.9705141918658539  0.16224837825895966  0.3440980710413426  1.0000
  C   C16       1.0  0.9629675979960353  0.011688907917895897  0.3484381483316217  1.0000
  C   C17       1.0  0.9803055653252075  0.9269726189216876  0.4632708656066369  1.0000
  C   C18       1.0  0.0055531452299670825  0.9904192321256527  0.576502054982529  1.0000
  C   C19       1.0  0.953056915130738  0.2533608027417287  0.22321797094951767  1.0000
  O   O2        1.0  0.9312787211832929  0.1983066915195213  0.12035667149811946  1.0000
  H   H7        1.0  0.00799801870598471  0.2200959934537694  0.8938200997418355  1.0000
  H   H8        1.0  0.9980102615249674  0.34390950699179923  0.45414264048779884  1.0000
  H   H9        1.0  0.9444316736343866  0.9590441104453976  0.26267413898370484  1.0000
  H   H10       1.0  0.9758885987194327  0.8105847400724744  0.46256315731980857  1.0000
  H   H11       1.0  0.007507773364227921  0.6915070938753496  0.7912176793624108  1.0000
  H   H12       1.0  0.9589066073002607  0.36961013758605077  0.22187126065387752  1.0000
  C   C20       1.0  0.00807880551136586  0.5669291937198098  0.19409132758510017  1.0000
  C   C21       1.0  0.9786437283112387  0.711064237980769  0.18320324150170908  1.0000
  C   C22       1.0  0.963780571000524  0.7825710157388497  0.06080885104693601  1.0000
  C   C23       1.0  0.9786436528210655  0.71106408744672  0.9480520711684446  1.0000
  C   C24       1.0  0.008078750605504226  0.5669291846142026  0.956588231023527  1.0000
  C   C25       1.0  0.022626419222984806  0.4955537112507433  0.08014918243666758  1.0000
  S   S1        1.0  0.92634630300466  0.9668296853562663  0.0483933793134903  1.0000
  C   C26       1.0  0.8151842811868046  0.9176866119071179  0.05143376388412246  1.0000
  H   H13       1.0  0.01914008538190415  0.5125935453264177  0.5255087400014855  1.0000
  H   H14       1.0  0.9669509561126655  0.7683151008200653  0.2694451020936728  1.0000
  H   H15       1.0  0.9669507876988694  0.7683148949707845  0.8540947880338852  1.0000
  H   H16       1.0  0.0453156899172924  0.38436657387163287  0.08764115472584999  1.0000
  H   H17       1.0  0.019138512050971057  0.512592814208185  0.6324931477122337  1.0000
  H   H18       1.0  0.8005408525159458  0.8536985583202397  0.9675664176372529  1.0000
  H   H19       1.0  0.8005412067499058  0.8537000117298081  0.14380111475640156  1.0000
  H   H20       1.0  0.7753721828721953  0.017664862108810908  0.044653107327476516  1.0000
  Zn  Zn1       1.0  0.9152285187772625  0.5679665550441075  0.5750638872405258  1.0000
  Zn  Zn2       1.0  0.10092093224881848  0.5658912129923206  0.5756150651412459  1.0000
  C   C27       1.0  0.008111136362141114  0.561184029098696  0.8124442298395831  1.0000
  C   C28       1.0  0.00804033156726458  0.5726755358995064  0.3382348609810266  1.0000
  C   C29       1.0  0.006503572104946009  0.8303220273489842  0.5708890962368915  1.0000
  C   C30       1.0  0.009647842793992778  0.30353580570097893  0.5797900588572755  1.0000
  O   O3        1.0  0.07849676005084327  0.5738101877461819  0.3868198994302514  1.0000
  O   O4        1.0  0.07859095956191187  0.5584731527104585  0.7642771459498905  1.0000
  O   O5        1.0  0.07729188113379859  0.7758055006290552  0.5692196678186281  1.0000
  O   O6        1.0  0.07979577505319457  0.3564778508521973  0.5818772800578347  1.0000
  O   O7        1.0  0.9363536126051695  0.7773799178940131  0.5688016721290223  1.0000
  O   O8        1.0  0.9376526806960329  0.5600493026334377  0.7638590857918126  1.0000
  O   O9        1.0  0.9375584815411416  0.5753862874135445  0.38640027822690026  1.0000
  O   O10       1.0  0.9388574966015383  0.35805394020473025  0.5814577561632479  1.0000
