data_image0
_chemical_formula_structural       NC9NC3OH6C6BrH5C6FH5Zn2C4O8
_chemical_formula_sum              "N2 C28 O9 H16 Br1 F1 Zn2"
_cell_length_a       15.78231758774541
_cell_length_b       10.302969083221269
_cell_length_c       9.275646106892307
_cell_angle_alpha    84.95236398800574
_cell_angle_beta     90.10253560025426
_cell_angle_gamma    89.63144763104107

_space_group_name_H-M_alt    "P 1"
_space_group_IT_number       1

loop_
  _space_group_symop_operation_xyz
  'x, y, z'

loop_
  _atom_site_type_symbol
  _atom_site_label
  _atom_site_symmetry_multiplicity
  _atom_site_fract_x
  _atom_site_fract_y
  _atom_site_fract_z
  _atom_site_occupancy
  N   N1        1.0  0.797488520459407  0.42806281724628503  0.4106546793260588  1.0000
  C   C1        1.0  0.7489636743574181  0.34576879377059844  0.43741594697795705  1.0000
  C   C2        1.0  0.6887182732439082  0.24362190353278868  0.4706335744305692  1.0000
  C   C3        1.0  0.7083920541123555  0.11530979500505878  0.5122720142836796  1.0000
  C   C4        1.0  0.6316669184217294  0.05312392978053637  0.5325344857352237  1.0000
  C   C5        1.0  0.5698779919492143  0.1480891353327385  0.5017631521963517  1.0000
  C   C6        1.0  0.47678856421719096  0.1305305422298999  0.5075542872482168  1.0000
  C   C7        1.0  0.42303404012267704  0.2381872646529808  0.4724877131333116  1.0000
  C   C8        1.0  0.3348288302301303  0.22378956294993446  0.47724426318694446  1.0000
  C   C9        1.0  0.2803775324484848  0.334578701445724  0.4411482441142247  1.0000
  N   N2        1.0  0.23661158471276522  0.4236388887757392  0.4121302708711174  1.0000
  C   C10       1.0  0.2996968717617987  0.10157488524027469  0.5171218372042925  1.0000
  C   C11       1.0  0.3525204450370585  0.9941406936285543  0.5521207544868354  1.0000
  C   C12       1.0  0.44054002739852943  0.008142880926464535  0.5474934609534354  1.0000
  O   O1        1.0  0.6063265836560977  0.26063628682395734  0.46518680949990965  1.0000
  H   H1        1.0  0.7708562224170024  0.07203889081186987  0.5262574773990492  1.0000
  H   H2        1.0  0.6229436965266711  0.9508751994300396  0.5657319861776073  1.0000
  H   H3        1.0  0.4496311696485564  0.33329200467349884  0.44145064225875474  1.0000
  H   H4        1.0  0.23158166094470134  0.08938080271694382  0.5211480289568733  1.0000
  H   H5        1.0  0.32519294291173123  0.8996861344534206  0.5829461106065947  1.0000
  H   H6        1.0  0.4796339112988217  0.9230473473700068  0.5752242368334035  1.0000
  C   C13       1.0  0.01705408915235984  0.04460324921780345  0.4113987626228952  1.0000
  C   C14       1.0  0.10490674599876626  0.04057118300381779  0.436018242007959  1.0000
  C   C15       1.0  0.14848639235146166  0.9216332122820317  0.448230641727861  1.0000
  C   C16       1.0  0.10490681246388389  0.8054888253618266  0.43601796836421736  1.0000
  C   C17       1.0  0.017054102157546103  0.8070882673617619  0.4113986669790639  1.0000
  C   C18       1.0  0.9735520121183557  0.9272400608906913  0.3992078787184017  1.0000
  Br  Br1       1.0  0.2679811285479434  0.9178032596644251  0.4817177626150593  1.0000
  H   H7        1.0  0.983987197720681  0.3734225526777173  0.4021315746083991  1.0000
  H   H8        1.0  0.13987922751622106  0.12944958552402053  0.4458189500789085  1.0000
  H   H9        1.0  0.13987932706967277  0.7143686566174869  0.4458183002603695  1.0000
  H   H10       1.0  0.9057966645198723  0.9294116488686032  0.38022058230608624  1.0000
  H   H11       1.0  0.9839869555565516  0.4803885424485073  0.4021337065705479  1.0000
  C   C19       1.0  0.016955482498649754  0.4299102529495171  0.9875579448541907  1.0000
  C   C20       1.0  0.0945383552892134  0.44269761573978084  0.05987949642676149  1.0000
  C   C21       1.0  0.17107095147166418  0.4433052238977191  0.9846908497315212  1.0000
  C   C22       1.0  0.1713647585121887  0.4310058351452841  0.8363155838144292  1.0000
  C   C23       1.0  0.09510965307119901  0.4203697900983312  0.7620665346528468  1.0000
  C   C24       1.0  0.017152677369617786  0.42178129904542283  0.8352394913364778  1.0000
  F   F1        1.0  0.2452731985992589  0.45427891725186864  0.05637540272009334  1.0000
  H   H12       1.0  0.8204781151220086  0.3264140480790507  0.10005064389396612  1.0000
  H   H13       1.0  0.09604266716431908  0.4491389654465321  0.17581180250091122  1.0000
  H   H14       1.0  0.23078281325558536  0.43095035982327135  0.7781998828133383  1.0000
  H   H15       1.0  0.0970418602737333  0.4141447949511601  0.6461401023207225  1.0000
  H   H16       1.0  0.8841373223885235  0.3574493911692189  0.5599467754649026  1.0000
  Zn  Zn1       1.0  0.9242099495151357  0.4267826193167945  0.4110888311622074  1.0000
  Zn  Zn2       1.0  0.10989012990935465  0.42490837746437937  0.41170791766144976  1.0000
  C   C25       1.0  0.01711353815699379  0.4181458174930446  0.6750095247304209  1.0000
  C   C26       1.0  0.01698856892228373  0.43354679556091047  0.1477873725154477  1.0000
  C   C27       1.0  0.017048401122025103  0.6630175806875938  0.40564716421104685  1.0000
  C   C28       1.0  0.017053642615459275  0.1886734724621284  0.41714980977326555  1.0000
  O   O2        1.0  0.08746433380741148  0.4340503235284783  0.20179677225316572  1.0000
  O   O3        1.0  0.08756473374747387  0.4162188079001983  0.6214695818409559  1.0000
  O   O4        1.0  0.08751118521981427  0.6139558487022543  0.40395756677086925  1.0000
  O   O5        1.0  0.08751781894982447  0.23631329369102128  0.4193086788930196  1.0000
  O   O6        1.0  0.9465821971111313  0.6153777037312256  0.40348806971178197  1.0000
  O   O7        1.0  0.9466357456170497  0.4176422234744759  0.6210000078245701  1.0000
  O   O8        1.0  0.9465353453295958  0.4354737105014497  0.20132546294798814  1.0000
  O   O9        1.0  0.9465888304937213  0.23773667034046686  0.41883747779921965  1.0000
