data_image0
_chemical_formula_structural       NC9NC3OH6C6H6C6NCOH7Zn2C4O8
_chemical_formula_sum              "N3 C29 O10 H19 Zn2"
_cell_length_a       15.78231758774541
_cell_length_b       10.681118228259551
_cell_length_c       10.29962270195845
_cell_angle_alpha    85.57967045949373
_cell_angle_beta     90.10253899755935
_cell_angle_gamma    89.63144314392761

_space_group_name_H-M_alt    "P 1"
_space_group_IT_number       1

loop_
  _space_group_symop_operation_xyz
  'x, y, z'

loop_
  _atom_site_type_symbol
  _atom_site_label
  _atom_site_symmetry_multiplicity
  _atom_site_fract_x
  _atom_site_fract_y
  _atom_site_fract_z
  _atom_site_occupancy
  N   N1        1.0  0.7975558895897887  0.3623478187149214  0.5699632012133393  1.0000
  C   C1        1.0  0.7490299120947987  0.2832224985890104  0.5940420347817505  1.0000
  C   C2        1.0  0.6887831066310415  0.1850087432767209  0.6239300704823958  1.0000
  C   C3        1.0  0.7084551271541344  0.06163641445526924  0.6613948526094404  1.0000
  C   C4        1.0  0.6317291348154995  0.0018453780972917944  0.6796263013093595  1.0000
  C   C5        1.0  0.5699415092532908  0.09315503439252715  0.6519393536273375  1.0000
  C   C6        1.0  0.4768518366752522  0.07627330367314711  0.657150010314459  1.0000
  C   C7        1.0  0.4230987951083269  0.17978419148615843  0.625598358362365  1.0000
  C   C8        1.0  0.33489338411022807  0.16594157930362918  0.6298781323871099  1.0000
  C   C9        1.0  0.28044361237997173  0.2724641674706394  0.597400222595369  1.0000
  N   N2        1.0  0.23667889145340051  0.3580945846645376  0.5712908858439241  1.0000
  C   C10       1.0  0.2997597397063999  0.04843401851913143  0.6657585503959322  1.0000
  C   C11       1.0  0.35258183331368  0.945137137943004  0.6972493271473379  1.0000
  C   C12       1.0  0.44060161131599196  0.9585994709600206  0.6930858535268907  1.0000
  O   O1        1.0  0.6063916473040368  0.20136881516233984  0.6190292658296719  1.0000
  H   H1        1.0  0.7709187042051847  0.020030823081822247  0.6739784731571152  1.0000
  H   H2        1.0  0.6230045094294376  0.9035331962336985  0.7094962274160879  1.0000
  H   H3        1.0  0.44969723681362783  0.27122590807588387  0.5976723095918197  1.0000
  H   H4        1.0  0.2316443586634488  0.03671004467689998  0.6693811740793101  1.0000
  H   H5        1.0  0.3252530279596943  0.8543205645187112  0.7249848825371101  1.0000
  H   H6        1.0  0.479694322825986  0.8767810696552496  0.7180370160300038  1.0000
  C   C13       1.0  0.017121446214195757  0.9924711684065124  0.5706326346628654  1.0000
  C   C14       1.0  0.054340076720009955  0.9176304274106031  0.6738792289844393  1.0000
  C   C15       1.0  0.054340063752967405  0.7867481893413966  0.6738791695717004  1.0000
  C   C16       1.0  0.01712143199990268  0.7279615725189812  0.5706326907586721  1.0000
  C   C17       1.0  0.9799336111686865  0.8027906426009632  0.46747141690763194  1.0000
  C   C18       1.0  0.9799336240918932  0.9336829005915099  0.46747146965391995  1.0000
  H   H7        1.0  0.9794831079643741  0.2992984520535622  0.46622290958925006  1.0000
  H   H8        1.0  0.08351384544651652  0.9601493568904017  0.7548087422586658  1.0000
  H   H9        1.0  0.0835137412650715  0.7316453292963849  0.7548087190040433  1.0000
  H   H10       1.0  0.9507560385848381  0.7603172896379382  0.3865313367550416  1.0000
  H   H11       1.0  0.9507560163722607  0.9887417288835966  0.38653132612823926  1.0000
  H   H12       1.0  0.9794834198531122  0.43736909803074975  0.4662225592361986  1.0000
  C   C19       1.0  0.0170408050869455  0.3600950548976787  0.18927563369000389  1.0000
  C   C20       1.0  0.9282567569330111  0.3706158305983729  0.18691366186180258  1.0000
  C   C21       1.0  0.883683226186643  0.37796523708273266  0.06876163420729986  1.0000
  C   C22       1.0  0.9284441098720526  0.3708824296836546  0.9517420358057374  1.0000
  C   C23       1.0  0.01720206158270332  0.36033765089512637  0.9519896471194422  1.0000
  C   C24       1.0  0.06101940763502478  0.3555061469838636  0.0712587046325639  1.0000
  N   N3        1.0  0.7927205579258779  0.3867878151696953  0.07036924914040421  1.0000
  C   C25       1.0  0.7430115462974324  0.4556214556233611  0.9721454390827438  1.0000
  O   O2        1.0  0.7771441417765035  0.527679867617812  0.885138692649639  1.0000
  H   H13       1.0  0.18444954431150107  0.3389097633478537  0.4010898453096934  1.0000
  H   H14       1.0  0.8932709937674831  0.374213384782788  0.2769635460996642  1.0000
  H   H15       1.0  0.8940542190384028  0.3709791266791653  0.8607858330172382  1.0000
  H   H16       1.0  0.1294632000581455  0.347411980496412  0.07220211872180027  1.0000
  H   H17       1.0  0.051186522838827964  0.3543916409448349  0.6247896656184988  1.0000
  H   H18       1.0  0.7605469010623205  0.34816208169672547  0.152369285841347  1.0000
  H   H19       1.0  0.6746784549761207  0.44847281856958165  0.9748336708039336  1.0000
  Zn  Zn1       1.0  0.9242773002879774  0.36111708452876723  0.570353835550877  1.0000
  Zn  Zn2       1.0  0.10995745450741534  0.35931510127045807  0.5709108674938588  1.0000
  C   C26       1.0  0.017169690242631708  0.3553028931005864  0.807820396075041  1.0000
  C   C27       1.0  0.017067092201167755  0.36513085316506455  0.3334444405150636  1.0000
  C   C28       1.0  0.01711597078813365  0.5889366010436867  0.5654576559229283  1.0000
  C   C29       1.0  0.017120748310695655  0.1314956412756496  0.5758072497134592  1.0000
  O   O3        1.0  0.08754056524303899  0.3661316063964155  0.3820401998028222  1.0000
  O   O4        1.0  0.0876231578279949  0.3529335314163087  0.7596470373087092  1.0000
  O   O5        1.0  0.08757882907741155  0.5415957149299133  0.5639374070296905  1.0000
  O   O6        1.0  0.08758483061297695  0.1774694324251973  0.5777497325201317  1.0000
  O   O7        1.0  0.9466498608188911  0.5429627539903177  0.5635149703276858  1.0000
  O   O8        1.0  0.9466941895509192  0.35430207503931777  0.7592245313635033  1.0000
  O   O9        1.0  0.9466115966922085  0.36750010588240434  0.3816161325057603  1.0000
  O   O10       1.0  0.9466558620792668  0.17883792298508938  0.5773257625878612  1.0000
