data_image0
_chemical_formula_structural       NC9NC3OH6C7F3H5C6ClH5Zn2C4O8
_chemical_formula_sum              "N2 C29 O9 H16 F3 Cl1 Zn2"
_cell_length_a       15.78231758774541
_cell_length_b       9.27228830945605
_cell_length_c       10.302974078461048
_cell_angle_alpha    85.26210322336898
_cell_angle_beta     90.08385130592438
_cell_angle_gamma    89.05832516092083

_space_group_name_H-M_alt    "P 1"
_space_group_IT_number       1

loop_
  _space_group_symop_operation_xyz
  'x, y, z'

loop_
  _atom_site_type_symbol
  _atom_site_label
  _atom_site_symmetry_multiplicity
  _atom_site_fract_x
  _atom_site_fract_y
  _atom_site_fract_z
  _atom_site_occupancy
  N   N1        1.0  0.7886179861309149  0.5707064202879646  0.5629701851431079  1.0000
  C   C1        1.0  0.7406234665234726  0.47950123259590227  0.5874727849235264  1.0000
  C   C2        1.0  0.6810363294065979  0.3662934252453509  0.6178868173937373  1.0000
  C   C3        1.0  0.701537016467493  0.22408617607279635  0.6560123600752044  1.0000
  C   C4        1.0  0.6252126126090023  0.15516697628646825  0.6745640168161973  1.0000
  C   C5        1.0  0.562811670240538  0.2604166161470729  0.6463880183029767  1.0000
  C   C6        1.0  0.46983537116335206  0.24095756632751097  0.6516890654544931  1.0000
  C   C7        1.0  0.4153870930165652  0.360271225270252  0.6195830626502805  1.0000
  C   C8        1.0  0.32727464405705287  0.34431527093738334  0.623936952538223  1.0000
  C   C9        1.0  0.2721094092216055  0.4671004226811095  0.5908885652453735  1.0000
  N   N2        1.0  0.2277695485379903  0.5658038432442409  0.564320638571328  1.0000
  C   C10       1.0  0.29293023260416845  0.2088680760185413  0.6604466617256048  1.0000
  C   C11       1.0  0.3464461244879647  0.08980109471174291  0.692490641915773  1.0000
  C   C12       1.0  0.43437549453693425  0.10531871338492271  0.6882550888957604  1.0000
  O   O1        1.0  0.5985349687593335  0.3851511204602833  0.6128983709696769  1.0000
  H   H1        1.0  0.7642800603546793  0.17612879003961224  0.6688188280577951  1.0000
  H   H2        1.0  0.6171483267263711  0.04184573346766296  0.704960481180535  1.0000
  H   H3        1.0  0.44137137254186765  0.46567315967680445  0.5911673151783488  1.0000
  H   H4        1.0  0.22489358602578782  0.1953542118731002  0.6641320583310388  1.0000
  H   H5        1.0  0.319727282493015  0.9851197426298899  0.7207125480452505  1.0000
  H   H6        1.0  0.4740177413971812  0.01100927909369176  0.7136444250031502  1.0000
  C   C13       1.0  0.01069129558803894  0.14440263770377237  0.5656539527616855  1.0000
  C   C14       1.0  0.05095251268559986  0.22596287692130157  0.4632347346529617  1.0000
  C   C15       1.0  0.08284544079943346  0.15999061099226064  0.35626332844067266  1.0000
  C   C16       1.0  0.07416695563596742  0.010882804029497484  0.3479380385886157  1.0000
  C   C17       1.0  0.03699677224843789  0.9276056048728709  0.45201930618424613  1.0000
  C   C18       1.0  0.0057044107985526615  0.9920964679033695  0.5616481799574975  1.0000
  C   C19       1.0  0.11079353673116077  0.9389326902994415  0.2340133703555194  1.0000
  F   F1        1.0  0.11005970410476595  0.03354088217024431  0.12279545065566122  1.0000
  F   F2        1.0  0.06413190865253626  0.8191005176747908  0.20912189055001806  1.0000
  F   F3        1.0  0.19342467944070285  0.8954528959147897  0.2623820323025001  1.0000
  H   H7        1.0  0.8682284449628868  0.22856963566331734  0.7987381662811213  1.0000
  H   H8        1.0  0.056297496076032516  0.34216747581472506  0.46459455427143426  1.0000
  H   H9        1.0  0.11372073958472395  0.22612323141492463  0.2793183265037227  1.0000
  H   H10       1.0  0.03428915732295601  0.8111970191723411  0.4490916924692163  1.0000
  H   H11       1.0  0.966240743548516  0.8628496098645648  0.8759427800912825  1.0000
  C   C20       1.0  0.008197849830410053  0.5682495634525146  0.18240856210419798  1.0000
  C   C21       1.0  0.9943398439192588  0.4185027323609303  0.1923053135712669  1.0000
  C   C22       1.0  0.9874639228537528  0.34420243293931496  0.08025902068383517  1.0000
  C   C23       1.0  0.9943398813384714  0.41850281345230633  0.957197414331505  1.0000
  C   C24       1.0  0.008197848107271533  0.568249488972028  0.9448935815230439  1.0000
  C   C25       1.0  0.015059314530630807  0.642392982675474  0.0581550514946334  1.0000
  Cl  Cl1       1.0  0.9701519840397576  0.15713306620641632  0.0941259571576174  1.0000
  H   H12       1.0  0.013418410074552023  0.6246566046423512  0.5059835672353052  1.0000
  H   H13       1.0  0.9888282028815749  0.3589449206137618  0.2867667124900206  1.0000
  H   H14       1.0  0.9888282622166855  0.3589448993571809  0.8715657466955276  1.0000
  H   H15       1.0  0.025746986619196832  0.7578822338393756  0.04959405456879695  1.0000
  H   H16       1.0  0.013418248905983754  0.6246565936697097  0.612955936318444  1.0000
  Zn  Zn1       1.0  0.9153476598815251  0.5692877870421542  0.5633674060324019  1.0000
  Zn  Zn2       1.0  0.10103991559654002  0.5672106962647103  0.563934086149606  1.0000
  C   C26       1.0  0.008229772974130967  0.5624995386876956  0.8007947251177292  1.0000
  C   C27       1.0  0.008159819543883673  0.5740007430950811  0.32650689207068595  1.0000
  C   C28       1.0  0.00664265916710427  0.8318643234000007  0.5572318688788771  1.0000
  C   C29       1.0  0.009746880188771456  0.3046342249751737  0.5700698255264505  1.0000
  O   O2        1.0  0.07861633657687972  0.5751363495048429  0.37508268986922966  1.0000
  O   O3        1.0  0.07870938780818904  0.5597863795773563  0.7526486558393874  1.0000
  O   O4        1.0  0.0774268233780886  0.7773018604410427  0.5559699161878733  1.0000
  O   O5        1.0  0.07989883758205196  0.35762087967506173  0.5717613319361934  1.0000
  O   O6        1.0  0.9364886745283507  0.778877604342183  0.5555401600455983  1.0000
  O   O7        1.0  0.9377712287529273  0.5613638575964794  0.752218822279983  1.0000
  O   O8        1.0  0.9376781778739012  0.5767137772260511  0.3746512956645873  1.0000
  O   O9        1.0  0.9389606789363388  0.35919829707274564  0.5713300351158852  1.0000
