data_image0
_chemical_formula_structural       NC9NC3OH6C6ClH5C7H8Zn2C4O8
_chemical_formula_sum              "N2 C29 O9 H19 Cl1 Zn2"
_cell_length_a       15.78231758774541
_cell_length_b       10.30297070629231
_cell_length_c       9.274345330872308
_cell_angle_alpha    85.12371235536627
_cell_angle_beta     89.64000707228583
_cell_angle_gamma    89.63144908567993

_space_group_name_H-M_alt    "P 1"
_space_group_IT_number       1

loop_
  _space_group_symop_operation_xyz
  'x, y, z'

loop_
  _atom_site_type_symbol
  _atom_site_label
  _atom_site_symmetry_multiplicity
  _atom_site_fract_x
  _atom_site_fract_y
  _atom_site_fract_z
  _atom_site_occupancy
  N   N1        1.0  0.8050460287374122  0.423695294804572  0.4108227359423684  1.0000
  C   C1        1.0  0.7563939289882493  0.3414748211817269  0.4375811650004069  1.0000
  C   C2        1.0  0.6959905733152512  0.2394192252591656  0.47079526902693547  1.0000
  C   C3        1.0  0.7154663574550488  0.11122155459674299  0.5124292922089948  1.0000
  C   C4        1.0  0.638644870822704  0.04909137811061326  0.5326896144191757  1.0000
  C   C5        1.0  0.5770022664384474  0.14397201260950365  0.5019215448775183  1.0000
  C   C6        1.0  0.4838853010367277  0.1264293356435322  0.5077120656960625  1.0000
  C   C7        1.0  0.4302975235041462  0.2339896821924654  0.47264921110003755  1.0000
  C   C8        1.0  0.34206969554090016  0.21960505320787616  0.4774052566566598  1.0000
  C   C9        1.0  0.2877900394783546  0.3302949865399838  0.4413130662919915  1.0000
  N   N2        1.0  0.24416207634419654  0.4192754217856285  0.41229817098729993  1.0000
  C   C10       1.0  0.3067481135232494  0.09749997373790964  0.5172786008836614  1.0000
  C   C11       1.0  0.3594052619547034  0.9901619720519083  0.5522738058259551  1.0000
  C   C12       1.0  0.4474468477537036  0.004151441875711592  0.5476470030794998  1.0000
  O   O1        1.0  0.6136247838763279  0.25641863878264526  0.465349081880311  1.0000
  H   H1        1.0  0.7778640228822737  0.06798908766907275  0.526413271832401  1.0000
  H   H2        1.0  0.6297637900723342  0.9469338867866305  0.5658835935454347  1.0000
  H   H3        1.0  0.4570422387263589  0.32900912093002765  0.44161543230652245  1.0000
  H   H4        1.0  0.23861375759273443  0.08531695664569505  0.5213043656026071  1.0000
  H   H5        1.0  0.3319311808669049  0.8957921322894936  0.5830958923213323  1.0000
  H   H6        1.0  0.4864088678597132  0.919132122708522  0.575374837556307  1.0000
  C   C13       1.0  0.024608053086140558  0.04023783634136868  0.41156668226805015  1.0000
  C   C14       1.0  0.11197488253357024  0.0360239702022036  0.4396577067064762  1.0000
  C   C15       1.0  0.1553239719041859  0.9169763190739671  0.45359562239265294  1.0000
  C   C16       1.0  0.11197488216410534  0.8009160020034184  0.43965763883192177  1.0000
  C   C17       1.0  0.024608061755024835  0.8027227774978829  0.4115667649117922  1.0000
  C   C18       1.0  0.9813505210190279  0.9229708396291475  0.3976581520687916  1.0000
  Cl  Cl1       1.0  0.26446595800653405  0.913215713909689  0.48868790525888683  1.0000
  H   H7        1.0  0.9916985022628958  0.36912824976457737  0.4009844773854945  1.0000
  H   H8        1.0  0.14672279442873615  0.12487327858619324  0.4508300659185518  1.0000
  H   H9        1.0  0.14672276138978946  0.7096720868046689  0.4508299621198322  1.0000
  H   H10       1.0  0.9139705710135803  0.9252923741190566  0.3759934650674428  1.0000
  H   H11       1.0  0.9916984968984451  0.4761002812660076  0.4009847498439072  1.0000
  C   C19       1.0  0.026524855268662106  0.4243801243476484  0.9877706819069791  1.0000
  C   C20       1.0  0.9760741937782429  0.5163355784165378  0.05286074825195719  1.0000
  C   C21       1.0  0.9205578770161092  0.5979013458031426  0.9706405985922344  1.0000
  C   C22       1.0  0.9135315722766577  0.5884214203615745  0.8216727818719454  1.0000
  C   C23       1.0  0.9652960466819882  0.5001030276563465  0.7545828440392675  1.0000
  C   C24       1.0  0.022691252058102407  0.4185804660233723  0.8353626777571974  1.0000
  C   C25       1.0  0.8551341254371881  0.6781954511577268  0.7329477681187031  1.0000
  H   H12       1.0  0.12379752185201798  0.14062070505687863  0.1164339490315518  1.0000
  H   H13       1.0  0.9782316422111746  0.5232806210727716  0.16868499015153637  1.0000
  H   H14       1.0  0.8823114141613659  0.667637398395061  0.02367430563420858  1.0000
  H   H15       1.0  0.9620883066107107  0.497175292853272  0.6381800079134772  1.0000
  H   H16       1.0  0.09126602707133857  0.23019624465443633  0.5716976623341217  1.0000
  H   H17       1.0  0.889736647858795  0.7679875795482312  0.6939400252470098  1.0000
  H   H18       1.0  0.7995304735622832  0.705200699621608  0.7983358686025035  1.0000
  H   H19       1.0  0.8313299746450672  0.6304571875869185  0.6382661752848549  1.0000
  Zn  Zn1       1.0  0.9317653933400772  0.42241629007547177  0.41125684173596255  1.0000
  Zn  Zn2       1.0  0.11744262989010767  0.42054374969653385  0.41187586257258935  1.0000
  C   C26       1.0  0.023414014312147957  0.4145047038711944  0.6751496632526006  1.0000
  C   C27       1.0  0.02579603586708812  0.42845695258116034  0.14798318946273525  1.0000
  C   C28       1.0  0.024629724375361706  0.6586362585631869  0.4058157854138038  1.0000
  C   C29       1.0  0.024580262097158245  0.1843238381960648  0.41731714403163367  1.0000
  O   O2        1.0  0.09601498102355843  0.4291088901268483  0.20198688573899592  1.0000
  O   O3        1.0  0.09411979729729292  0.41243057493771706  0.6216153740319144  1.0000
  O   O4        1.0  0.09510054187870343  0.6095698921279269  0.4041263589284547  1.0000
  O   O5        1.0  0.09503417357249777  0.23196958360328535  0.41947579242367516  1.0000
  O   O6        1.0  0.9541737862951934  0.6109904568091913  0.40365691166604467  1.0000
  O   O7        1.0  0.9531930420580057  0.41385269995255647  0.6211458498205695  1.0000
  O   O8        1.0  0.9550882336883401  0.43053098177207505  0.2015156264221074  1.0000
  O   O9        1.0  0.954107425744436  0.2333916652223369  0.4190046413067343  1.0000
