data_image0
_chemical_formula_structural       NC9NC3OH6C6FH5C7F3H5Zn2C4O8
_chemical_formula_sum              "N2 C29 O9 H16 F4 Zn2"
_cell_length_a       15.78231758774541
_cell_length_b       9.275642734913903
_cell_length_c       9.272291681409872
_cell_angle_alpha    85.97357626748612
_cell_angle_beta     90.49794672891421
_cell_angle_gamma    90.2347076146716

_space_group_name_H-M_alt    "P 1"
_space_group_IT_number       1

loop_
  _space_group_symop_operation_xyz
  'x, y, z'

loop_
  _atom_site_type_symbol
  _atom_site_label
  _atom_site_symmetry_multiplicity
  _atom_site_fract_x
  _atom_site_fract_y
  _atom_site_fract_z
  _atom_site_occupancy
  N   N1        1.0  0.8007848469329858  0.5556278265189887  0.41021090654933534  1.0000
  C   C1        1.0  0.7518045915256443  0.46472893298741336  0.43707204857563875  1.0000
  C   C2        1.0  0.6909939183357681  0.35190131452434636  0.47041364396318097  1.0000
  C   C3        1.0  0.7099572708141618  0.2101708771538231  0.512207907328557  1.0000
  C   C4        1.0  0.6328881675303322  0.1414834788292667  0.5325458032517743  1.0000
  C   C5        1.0  0.5716252242133977  0.24638062194994403  0.5016590905954408  1.0000
  C   C6        1.0  0.47843896113324486  0.22698762940057926  0.5074714421430901  1.0000
  C   C7        1.0  0.42527996591583944  0.3459000957102243  0.4722742787628458  1.0000
  C   C8        1.0  0.3369953854226073  0.3299983758923617  0.4770482168341912  1.0000
  C   C9        1.0  0.28315690681493233  0.45237058247526774  0.44081781929853037  1.0000
  N   N2        1.0  0.23988358086548092  0.550742035974954  0.4116918247266894  1.0000
  C   C10       1.0  0.3011876502134201  0.1950072248586472  0.5170739599445391  1.0000
  C   C11       1.0  0.35341694536040014  0.07634064879856783  0.552203191026416  1.0000
  C   C12       1.0  0.44151371218972196  0.09180551058561526  0.5475589887506669  1.0000
  O   O1        1.0  0.608696737941592  0.3706964308313001  0.4649461311418843  1.0000
  H   H1        1.0  0.7721816294915721  0.16237379820782571  0.5262459836345752  1.0000
  H   H2        1.0  0.6235988919565666  0.02854234183482962  0.5658674562513688  1.0000
  H   H3        1.0  0.4524029484294422  0.45094710152355133  0.4411219119959  1.0000
  H   H4        1.0  0.23300520711794662  0.1815392740353532  0.5211148811123691  1.0000
  H   H5        1.0  0.3255671871479973  0.9720118029237264  0.5831430542835963  1.0000
  H   H6        1.0  0.4801369229016493  0.997813305101128  0.5753929719676631  1.0000
  C   C13       1.0  0.017720810860026637  0.12967547351757736  0.41156243669935777  1.0000
  C   C14       1.0  0.0007652181397277413  0.2120380500899346  0.2812661511089021  1.0000
  C   C15       1.0  0.9918038206023772  0.14572568827491916  0.15144155307154206  1.0000
  C   C16       1.0  0.9997248550722128  0.996330619168398  0.14961909318011846  1.0000
  C   C17       1.0  0.015140490907492143  0.912378052897303  0.2778934535310662  1.0000
  C   C18       1.0  0.022955704878338423  0.9766833251089961  0.4103527668631375  1.0000
  F   F1        1.0  0.9763996377734311  0.22690603335552328  0.026687596235146716  1.0000
  H   H7        1.0  0.10664844806643559  0.21064786044644945  0.7338817978263084  1.0000
  H   H8        1.0  0.996431234086622  0.3286955174153827  0.2794064649626018  1.0000
  H   H9        1.0  0.9931083128843239  0.9450611659393668  0.04876976419292278  1.0000
  H   H10       1.0  0.018949875357134216  0.7961410920858112  0.2739440984786299  1.0000
  H   H11       1.0  0.0794509469309157  0.6805424491822618  0.6291804939154746  1.0000
  C   C19       1.0  0.018531989488758116  0.5494972677156698  0.9875961740774186  1.0000
  C   C20       1.0  0.07495377103690859  0.45809855968376967  0.06813735428789558  1.0000
  C   C21       1.0  0.13605942545118865  0.37957159549837804  0.9996592110147731  1.0000
  C   C22       1.0  0.14320617577218253  0.3920663265297375  0.8487727555190938  1.0000
  C   C23       1.0  0.08506664190108593  0.47870595408435745  0.7670625076572155  1.0000
  C   C24       1.0  0.022144493805074994  0.5568615747922048  0.8343190098872877  1.0000
  C   C25       1.0  0.20771381306727288  0.3039997278364919  0.7745315413977698  1.0000
  F   F2        1.0  0.2785064996022142  0.2788592063202786  0.8617247242539379  1.0000
  F   F3        1.0  0.23351943342951942  0.3758901558916441  0.6464415680545792  1.0000
  F   F4        1.0  0.17199369658791697  0.1729675462751321  0.7446424423115325  1.0000
  H   H12       1.0  0.9010195639926958  0.8422530660065806  0.06686821283877475  1.0000
  H   H13       1.0  0.07294503999734192  0.44951005458135374  0.18518974334719718  1.0000
  H   H14       1.0  0.17831312060950122  0.3098590457036836  0.06511538159462504  1.0000
  H   H15       1.0  0.08750606380603321  0.4825259453905044  0.6500773675939371  1.0000
  H   H16       1.0  0.8309879972603413  0.6971549266887354  0.7201318077409371  1.0000
  Zn  Zn1       1.0  0.9274992645281966  0.5542141129643343  0.41064659161930606  1.0000
  Zn  Zn2       1.0  0.11316911231121596  0.5521440813384377  0.41126794174875947  1.0000
  C   C26       1.0  0.021424263550905875  0.5497241918807241  0.6742784932248986  1.0000
  C   C27       1.0  0.01924615264761842  0.5566358007320631  0.147636185831296  1.0000
  C   C28       1.0  0.02193731079143313  0.8165308972610823  0.40483641117128255  1.0000
  C   C29       1.0  0.01873303166996476  0.2898273640134488  0.41707834700994995  1.0000
  O   O2        1.0  0.08994653304878941  0.5582396996143879  0.2015828838809952  1.0000
  O   O3        1.0  0.0916429930143936  0.5465480953020969  0.6208029720899724  1.0000
  O   O4        1.0  0.09205634170075627  0.7619979077558519  0.40322657916391225  1.0000
  O   O5        1.0  0.08953312060845642  0.3427898972436121  0.4191591684837066  1.0000
  O   O6        1.0  0.9511351928709268  0.7635682977670639  0.40275536466473727  1.0000
  O   O7        1.0  0.9507218545616614  0.5481202173594686  0.6203316782461383  1.0000
  O   O8        1.0  0.949025386946616  0.5598117563390721  0.20110985678264348  1.0000
  O   O9        1.0  0.9486119749002241  0.344361944593222  0.4186862494890826  1.0000
