data_image0
_chemical_formula_structural       NC9NC3OH6C8H10C6NCH9Zn2C4O8
_chemical_formula_sum              "N3 C31 O9 H25 Zn2"
_cell_length_a       15.78231758774541
_cell_length_b       9.275653711864159
_cell_length_c       9.273390368590327
_cell_angle_alpha    86.35028473640597
_cell_angle_beta     90.0787864382203
_cell_angle_gamma    89.08352321082864

_space_group_name_H-M_alt    "P 1"
_space_group_IT_number       1

loop_
  _space_group_symop_operation_xyz
  'x, y, z'

loop_
  _atom_site_type_symbol
  _atom_site_label
  _atom_site_symmetry_multiplicity
  _atom_site_fract_x
  _atom_site_fract_y
  _atom_site_fract_z
  _atom_site_occupancy
  N   N1        1.0  0.7892862095144665  0.5522777564189478  0.41781125332253977  1.0000
  C   C1        1.0  0.7412628642674407  0.46144742428132624  0.4442467676177375  1.0000
  C   C2        1.0  0.6816399474658585  0.3487049079220428  0.47706005543952945  1.0000
  C   C3        1.0  0.7020957029125426  0.20708120285353826  0.5181907005077999  1.0000
  C   C4        1.0  0.6257495108213676  0.13844569045494448  0.5382069611788949  1.0000
  C   C5        1.0  0.5633818160054572  0.243263927649644  0.5078113910230122  1.0000
  C   C6        1.0  0.4703993544377206  0.22388571965336768  0.5135329133982733  1.0000
  C   C7        1.0  0.4159887944813265  0.3427083836245477  0.4788925655384977  1.0000
  C   C8        1.0  0.3278712912157631  0.3268188020841938  0.4835920239597029  1.0000
  C   C9        1.0  0.2727448733962645  0.4490985758649839  0.44793464497633284  1.0000
  N   N2        1.0  0.2284362168032392  0.547395722566463  0.41926928373386274  1.0000
  C   C10       1.0  0.29348405078441797  0.19192972966565525  0.5229856426167134  1.0000
  C   C11       1.0  0.34696230172192855  0.07335277958891862  0.5575592082185901  1.0000
  C   C12       1.0  0.43489658744225057  0.0888058338390798  0.5529874398561332  1.0000
  O   O1        1.0  0.5991445336851883  0.36748601453624175  0.4716805252206391  1.0000
  H   H1        1.0  0.7648236028509409  0.15932000923128253  0.5320049944545266  1.0000
  H   H2        1.0  0.6176494175337016  0.02558963816154214  0.5709997900373394  1.0000
  H   H3        1.0  0.4420064033449351  0.44767594408782574  0.44823210493812393  1.0000
  H   H4        1.0  0.22544312383059262  0.17847205479785488  0.5269634839564026  1.0000
  H   H5        1.0  0.3202103581736571  0.9691028368394711  0.5880105281222692  1.0000
  H   H6        1.0  0.4745090186264103  0.9948846360706066  0.5803812946848119  1.0000
  C   C13       1.0  0.011243714138635674  0.12640683887830528  0.41720313502635564  1.0000
  C   C14       1.0  0.9913764348464074  0.20866814339066364  0.2885904587556256  1.0000
  C   C15       1.0  0.9638680332884492  0.1424406889029206  0.16553058394165743  1.0000
  C   C16       1.0  0.9574875272333792  0.9919668241764374  0.17011483122949822  1.0000
  C   C17       1.0  0.9782696694527652  0.9084783770418275  0.2959528423783764  1.0000
  C   C18       1.0  0.006486849081115187  0.9732555719568495  0.41988981036883377  1.0000
  C   C19       1.0  0.9440418684956785  0.2319903888997792  0.028132343519942093  1.0000
  C   C20       1.0  0.023321449791304127  0.25196270507164886  0.9356431129238199  1.0000
  H   H7        1.0  0.0881333531959898  0.39221811373799964  0.6172350756703828  1.0000
  H   H8        1.0  0.9954343201450242  0.3254004691656345  0.284720800190011  1.0000
  H   H9        1.0  0.9372107537615213  0.9389471112760679  0.07550561952608326  1.0000
  H   H10       1.0  0.9743512600765434  0.7920414737821414  0.29506002292978484  1.0000
  H   H11       1.0  0.014424291325507044  0.6765849544347348  0.6575988197757172  1.0000
  H   H12       1.0  0.8946518050176238  0.1789932842278925  0.9652929818822704  1.0000
  H   H13       1.0  0.918321600910755  0.3397110954089575  0.05359404222043551  1.0000
  H   H14       1.0  0.0726935237768791  0.30824241359367455  0.9953131812154443  1.0000
  H   H15       1.0  0.04876052490564775  0.14545834818474535  0.9060691736564048  1.0000
  H   H16       1.0  0.0073555405813652275  0.3181306154604846  0.8349920548474916  1.0000
  C   C21       1.0  0.008929818338539786  0.5453343146138441  0.9952865799992847  1.0000
  C   C22       1.0  0.08677319341594725  0.5416041142704382  0.0691383713773166  1.0000
  C   C23       1.0  0.16318379297918062  0.5512930814932573  0.9940109071899728  1.0000
  C   C24       1.0  0.16369174026550537  0.5650812799437404  0.8424286270960284  1.0000
  C   C25       1.0  0.08637851579239242  0.5663740278703977  0.7677612337375557  1.0000
  C   C26       1.0  0.008800773281177232  0.5543281582228763  0.8418063847126276  1.0000
  N   N3        1.0  0.24152521405628624  0.5764145528199829  0.7619377020748646  1.0000
  C   C27       1.0  0.32518913143247175  0.5756543985793734  0.8292042154420476  1.0000
  H   H17       1.0  0.8755708064074631  0.477558150465212  0.2804627747435122  1.0000
  H   H18       1.0  0.08857163491738618  0.5346243590383051  0.18617025259794806  1.0000
  H   H19       1.0  0.22157503100170794  0.5493172191647624  0.05532154266400835  1.0000
  H   H20       1.0  0.08696936293427648  0.5734719781819024  0.6506582362530349  1.0000
  H   H21       1.0  0.8119514091822762  0.44450184740916865  0.745304252281354  1.0000
  H   H22       1.0  0.23872211305849134  0.5860013152297547  0.64908305809745  1.0000
  H   H23       1.0  0.33016899474543915  0.6680904160362959  0.8989844634285196  1.0000
  H   H24       1.0  0.33610429843517786  0.47246900918498813  0.8944654722251011  1.0000
  H   H25       1.0  0.37478686143529294  0.586003016408243  0.7445131050442617  1.0000
  Zn  Zn1       1.0  0.9160154321773878  0.5508651436972698  0.41824031376159954  1.0000
  Zn  Zn2       1.0  0.10170702995631387  0.548796691988986  0.4188519684136742  1.0000
  C   C28       1.0  0.008855524002013837  0.5468838470623048  0.6817777921236301  1.0000
  C   C29       1.0  0.008868955637116871  0.5527797868817643  0.15531464397076422  1.0000
  C   C30       1.0  0.007382518677954586  0.8131221890239233  0.41363834826192547  1.0000
  C   C31       1.0  0.010341907316937515  0.2865397140547201  0.4234541589716594  1.0000
  O   O2        1.0  0.07931755851091093  0.5544872981330746  0.20925362390927038  1.0000
  O   O3        1.0  0.0793425534047596  0.5436053366412497  0.6283026255515722  1.0000
  O   O4        1.0  0.07815213279264421  0.7585961913233701  0.4117781291296825  1.0000
  O   O5        1.0  0.08050791571760008  0.3394964533234208  0.42577801208450183  1.0000
  O   O6        1.0  0.937214483048665  0.7601653830701849  0.4113142698744676  1.0000
  O   O7        1.0  0.9384048939375823  0.5451762599608403  0.6278386949408632  1.0000
  O   O8        1.0  0.9383798996465459  0.5560581527935682  0.20878796022853852  1.0000
  O   O9        1.0  0.9395702568912248  0.34106729881879816  0.42531245643412485  1.0000
