data_image0
_chemical_formula_structural       NC9NC3OH6C6OCH8C8H10Zn2C4O8
_chemical_formula_sum              "N2 C31 O10 H24 Zn2"
_cell_length_a       15.78231758774541
_cell_length_b       9.273888216677433
_cell_length_c       9.275657083861812
_cell_angle_alpha    86.0490458067009
_cell_angle_beta     89.58874472212382
_cell_angle_gamma    89.05820199757643

_space_group_name_H-M_alt    "P 1"
_space_group_IT_number       1

loop_
  _space_group_symop_operation_xyz
  'x, y, z'

loop_
  _atom_site_type_symbol
  _atom_site_label
  _atom_site_symmetry_multiplicity
  _atom_site_fract_x
  _atom_site_fract_y
  _atom_site_fract_z
  _atom_site_occupancy
  N   N1        1.0  0.7967520587138319  0.5611486028959509  0.41805701511508775  1.0000
  C   C1        1.0  0.7486208997490384  0.47015858016160217  0.44446892682716155  1.0000
  C   C2        1.0  0.6888641579817708  0.3572178468435039  0.4772529181616256  1.0000
  C   C3        1.0  0.7091522463721841  0.21534562800815982  0.5183467495519469  1.0000
  C   C4        1.0  0.6327243844350188  0.14658922672132624  0.5383451806734108  1.0000
  C   C5        1.0  0.5704805543943158  0.25159114371143154  0.5079768633862556  1.0000
  C   C6        1.0  0.4774746851980045  0.2321784229684758  0.5136933616471908  1.0000
  C   C7        1.0  0.42320545314017793  0.3512103058097855  0.479083882209117  1.0000
  C   C8        1.0  0.33506871662403614  0.3352923814804334  0.48377922211040714  1.0000
  C   C9        1.0  0.2800877842656304  0.45778751117175553  0.44815360837625184  1.0000
  N   N2        1.0  0.23589608632563883  0.5562577840018128  0.41951378209208734  1.0000
  C   C10       1.0  0.300520693472449  0.2001654237617465  0.5231378082040878  1.0000
  C   C11       1.0  0.35385788463386825  0.0813796611047739  0.5576805698934897  1.0000
  C   C12       1.0  0.4418108822625836  0.09686028718894057  0.553112806707287  1.0000
  O   O1        1.0  0.6063906063058648  0.37603150250725625  0.4718782803502126  1.0000
  H   H1        1.0  0.7718238838623779  0.16750093314642323  0.5321486205574082  1.0000
  H   H2        1.0  0.6244905975714556  0.03353504855138523  0.5711086760823898  1.0000
  H   H3        1.0  0.44934820555175403  0.4563630116785131  0.4484506824074721  1.0000
  H   H4        1.0  0.23246348868018982  0.18668375681929228  0.5271121610354754  1.0000
  H   H5        1.0  0.32698165074389096  0.9769458361465524  0.5881048154344541  1.0000
  H   H6        1.0  0.4813115385969979  0.0027736454218689754  0.580482263973749  1.0000
  C   C13       1.0  0.018823672827983584  0.13520568606728256  0.41732086717408445  1.0000
  C   C14       1.0  0.999696922720374  0.21802027916294997  0.2884981559675297  1.0000
  C   C15       1.0  0.9733324522575736  0.15295710140238983  0.16530700962901856  1.0000
  C   C16       1.0  0.9659403983212593  0.0020852083367894902  0.17047512456925018  1.0000
  C   C17       1.0  0.9859680778215174  0.9180512379167646  0.29652789686441827  1.0000
  C   C18       1.0  0.013832539762811624  0.9821895973446748  0.42026236988857524  1.0000
  O   O2        1.0  0.9546975297807813  0.24195508185238612  0.04072404344171332  1.0000
  C   C19       1.0  0.9270971718222771  0.19065661257463118  0.907970691677916  1.0000
  H   H7        1.0  0.02390548316263086  0.21365537257735512  0.772085517238968  1.0000
  H   H8        1.0  0.0032976452757944585  0.3348338048935229  0.28423724328263655  1.0000
  H   H9        1.0  0.9455036563113391  0.9483970957720819  0.07717504777614237  1.0000
  H   H10       1.0  0.9815673754937625  0.8016293656051732  0.29603328496794723  1.0000
  H   H11       1.0  0.020810971740513384  0.6844030861906479  0.658222996683584  1.0000
  H   H12       1.0  0.8662059842556636  0.13329606293670726  0.924382488315731  1.0000
  H   H13       1.0  0.9759668061451444  0.11728207013817937  0.864907391751855  1.0000
  H   H14       1.0  0.9172004518367987  0.28404297403225254  0.8282387818599566  1.0000
  C   C20       1.0  0.018499367195034866  0.5564996002157341  0.9954713468588383  1.0000
  C   C21       1.0  0.06174587549870436  0.6659448848582399  0.06093912487269648  1.0000
  C   C22       1.0  0.09747382822463635  0.7816459021253666  0.977724552506892  1.0000
  C   C23       1.0  0.09121869169617036  0.786903745520986  0.8270830368248063  1.0000
  C   C24       1.0  0.0497985688156648  0.6780837639371977  0.7601709685505615  1.0000
  C   C25       1.0  0.014156860182916287  0.5608956684939119  0.84211191334549  1.0000
  C   C26       1.0  0.14460429480939263  0.8967606255533314  0.04948468515621918  1.0000
  C   C27       1.0  0.2379222177559206  0.8545721729704641  0.06749513597041368  1.0000
  H   H15       1.0  0.9818192743247686  0.3268571465625778  0.2923732306279121  1.0000
  H   H16       1.0  0.0661428655574996  0.6632223973810425  0.1776693989247633  1.0000
  H   H17       1.0  0.11926636012577352  0.8747288691687674  0.7610976814607175  1.0000
  H   H18       1.0  0.047584874244950726  0.683728174516447  0.6432089328537547  1.0000
  H   H19       1.0  0.9150872182100867  0.3958015835759441  0.5733684081264023  1.0000
  H   H20       1.0  0.13934672589191632  0.0015076981185493388  0.9839925784406467  1.0000
  H   H21       1.0  0.11632441086240508  0.9134075402188608  0.15732441094537686  1.0000
  H   H22       1.0  0.244559075625284  0.7519127072301119  0.13590703970873053  1.0000
  H   H23       1.0  0.2678202561122942  0.8409673195382628  0.9603731475473736  1.0000
  H   H24       1.0  0.2714886017903757  0.9407629986697004  0.12047543377797898  1.0000
  Zn  Zn1       1.0  0.9234795154419425  0.5597334092162511  0.4184857109815119  1.0000
  Zn  Zn2       1.0  0.10916861002337441  0.5576612685098246  0.41909682948404403  1.0000
  C   C28       1.0  0.015009653901980613  0.5543195531414975  0.68205873595618  1.0000
  C   C29       1.0  0.017640487834021945  0.5630769223240877  0.15552395899020843  1.0000
  C   C30       1.0  0.014801087612921204  0.8220618308065972  0.41396189403786154  1.0000
  C   C31       1.0  0.01784900057643357  0.29533291310099297  0.42362087153762973  1.0000
  O   O3        1.0  0.08782032081660907  0.5644916734917431  0.20947097215678778  1.0000
  O   O4        1.0  0.08576355569302074  0.5513310050197917  0.6285751288444967  1.0000
  O   O5        1.0  0.08559417814585313  0.7675362986812024  0.41208503424714493  1.0000
  O   O6        1.0  0.08798963549425798  0.34828639029267117  0.42596095849535565  1.0000
  O   O7        1.0  0.9446584266045136  0.769108288142055  0.4116215817540785  1.0000
  O   O8        1.0  0.9448277943317837  0.5529047267472895  0.6281116055062055  1.0000
  O   O9        1.0  0.9468845686974119  0.566065335964143  0.20900571548622038  1.0000
  O   O10       1.0  0.9470538828780343  0.3498600430113825  0.4254958098674504  1.0000
