data_image0
_chemical_formula_structural       NC9NC3OH6C7F3H5C8H10Zn2C4O8
_chemical_formula_sum              "N2 C31 O9 H21 F3 Zn2"
_cell_length_a       15.78231758774541
_cell_length_b       9.27228830945605
_cell_length_c       9.275657083861812
_cell_angle_alpha    85.55061255966405
_cell_angle_beta     89.58874472212382
_cell_angle_gamma    89.05832516092083

_space_group_name_H-M_alt    "P 1"
_space_group_IT_number       1

loop_
  _space_group_symop_operation_xyz
  'x, y, z'

loop_
  _atom_site_type_symbol
  _atom_site_label
  _atom_site_symmetry_multiplicity
  _atom_site_fract_x
  _atom_site_fract_y
  _atom_site_fract_z
  _atom_site_occupancy
  N   N1        1.0  0.7968018634615415  0.5624144751708919  0.4044373263940342  1.0000
  C   C1        1.0  0.7486678016756341  0.47135067230641203  0.43164304837123235  1.0000
  C   C2        1.0  0.6889074568018341  0.35831835991457694  0.4654123511801238  1.0000
  C   C3        1.0  0.7091910190952101  0.2163311026337733  0.5077438965555958  1.0000
  C   C4        1.0  0.6327609636479503  0.14751894956139422  0.5283421685771312  1.0000
  C   C5        1.0  0.5705204834446522  0.25260600836009295  0.4970577992102023  1.0000
  C   C6        1.0  0.4775139949314758  0.23317754662686596  0.5029436568859023  1.0000
  C   C7        1.0  0.42324856030387686  0.35230594760875733  0.46729572589416324  1.0000
  C   C8        1.0  0.33511131596406984  0.3363751160782291  0.47212993609521114  1.0000
  C   C9        1.0  0.2801342915225777  0.45896957211696243  0.4354356569353903  1.0000
  N   N2        1.0  0.2359457350433581  0.5575196905094792  0.4059367615903213  1.0000
  C   C10       1.0  0.30055898190702157  0.2011385893735691  0.5126673895296039  1.0000
  C   C11       1.0  0.35389238349009466  0.08225650814491958  0.5482464555841893  1.0000
  C   C12       1.0  0.4418458749915107  0.0977496868427985  0.5435436371520719  1.0000
  O   O1        1.0  0.6064345053310413  0.3771472708109518  0.4598735802853069  1.0000
  H   H1        1.0  0.7718611302137617  0.16844761244363826  0.521963171676054  1.0000
  H   H2        1.0  0.6245235700586655  0.03437310032987351  0.562091965170016  1.0000
  H   H3        1.0  0.4493946673634198  0.45754391755468293  0.43574515850851503  1.0000
  H   H4        1.0  0.23250134701411762  0.1876459906925403  0.5167593583950172  1.0000
  H   H5        1.0  0.3270128178863427  0.9777380020209626  0.5795817970869608  1.0000
  H   H6        1.0  0.4813435297145169  0.0035867540224381322  0.5717339200409632  1.0000
  C   C13       1.0  0.01885988887601897  0.13612617845454333  0.40741716675125117  1.0000
  C   C14       1.0  0.05970438288866853  0.21709543860767755  0.2936990797744252  1.0000
  C   C15       1.0  0.09220651260519364  0.15050592659213446  0.17492660815909766  1.0000
  C   C16       1.0  0.0835754399241877  0.0013500810668976015  0.16568287389724734  1.0000
  C   C17       1.0  0.0458125142583754  0.9186734513276176  0.2812463673476042  1.0000
  C   C18       1.0  0.01389581694184372  0.9837968945559497  0.40296947784512693  1.0000
  C   C19       1.0  0.12085082141316006  0.9287425995587322  0.039190057703469616  1.0000
  F   F1        1.0  0.12075037426170909  0.022709042123673973  0.9157025980317499  1.0000
  F   F2        1.0  0.07433095018272318  0.8087667981921473  0.011552554530002146  1.0000
  F   F3        1.0  0.2033204047402819  0.885426497941953  0.07068834509791455  1.0000
  H   H7        1.0  0.8750696248656834  0.2216381182421403  0.666215186843444  1.0000
  H   H8        1.0  0.065041622113438  0.3333078839281758  0.2952089144373111  1.0000
  H   H9        1.0  0.12352001277680658  0.2161945591959662  0.08949304808827674  1.0000
  H   H10       1.0  0.04312157207779177  0.8022479727192315  0.2779957798384629  1.0000
  H   H11       1.0  0.972642243576721  0.8563635782738698  0.7519369991204736  1.0000
  C   C20       1.0  0.0185490236273278  0.5577617028023905  0.9818922167170583  1.0000
  C   C21       1.0  0.061799023523520846  0.6672957322006452  0.046405178061924346  1.0000
  C   C22       1.0  0.09753066741630456  0.7830905667441472  0.962181213100846  1.0000
  C   C23       1.0  0.0912756986268759  0.7883526735123685  0.8114938272240448  1.0000
  C   C24       1.0  0.049852104102660055  0.6794444542057962  0.7455311203834611  1.0000
  C   C25       1.0  0.01420665686135325  0.562161335674574  0.8284944312611495  1.0000
  C   C26       1.0  0.14466480646359758  0.8982986320465214  0.03293706806809138  1.0000
  C   C27       1.0  0.23798138348749331  0.8560759705534005  0.051315577112448274  1.0000
  H   H12       1.0  0.9818616045586157  0.32793304136946877  0.2807975348357463  1.0000
  H   H13       1.0  0.0661959267278025  0.6645710371684401  0.16315920349289148  1.0000
  H   H14       1.0  0.11932616890898595  0.8762490110015881  0.7447422726373123  1.0000
  H   H15       1.0  0.04763858960349343  0.6850934416093448  0.6285198420232962  1.0000
  H   H16       1.0  0.9151317479528627  0.39693338263894806  0.5611912309829883  1.0000
  H   H17       1.0  0.13941057925331823  0.0031306397772929984  0.9665311325727775  1.0000
  H   H18       1.0  0.1163854535969846  0.914959045022012  0.14063156373918773  1.0000
  H   H19       1.0  0.24461496624980916  0.7533332624034537  0.12062309704326557  1.0000
  H   H20       1.0  0.2678789878132486  0.8424600854956821  0.9443122794203864  1.0000
  H   H21       1.0  0.27155051723605017  0.9423366849079551  0.10354393355167946  1.0000
  Zn  Zn1       1.0  0.9235292750412505  0.5609981339678625  0.40487836861708404  1.0000
  Zn  Zn2       1.0  0.10921830351594175  0.5589243130463271  0.4055075647781785  1.0000
  C   C28       1.0  0.01505924078503651  0.5555798880161342  0.6684986248638953  1.0000
  C   C29       1.0  0.017690354100194483  0.564344358195279  0.14188744732845748  1.0000
  C   C30       1.0  0.014859216179046397  0.8235392670676733  0.3980659601593921  1.0000
  C   C31       1.0  0.017890325104295224  0.29638324618169465  0.41232019776842854  1.0000
  O   O2        1.0  0.08787023221706614  0.5657602565274487  0.195822117998951  1.0000
  O   O3        1.0  0.08581304723352878  0.5525889166016027  0.6150410902830841  1.0000
  O   O4        1.0  0.08565056720405062  0.7689695223930912  0.39666478908499636  1.0000
  O   O5        1.0  0.08803264937735933  0.34937966120678277  0.4141983108469798  1.0000
  O   O6        1.0  0.9447148658133104  0.7705427865166317  0.3961876223259786  1.0000
  O   O7        1.0  0.9448773360781548  0.5541639143964134  0.6145638375662943  1.0000
  O   O8        1.0  0.9469345303018419  0.5673351950191143  0.19534313246683443  1.0000
  O   O9        1.0  0.9470969469647975  0.3509545899368509  0.4137194334426184  1.0000
