data_image0
_chemical_formula_structural       NC9NC3OH6C6ClH5C6SCH8Zn2C4O8
_chemical_formula_sum              "N2 C29 O9 H19 Cl1 S1 Zn2"
_cell_length_a       15.78231758774541
_cell_length_b       10.30297070629231
_cell_length_c       10.302812801239593
_cell_angle_alpha    85.56070246902202
_cell_angle_beta     90.08384720459999
_cell_angle_gamma    89.63144908567993

_space_group_name_H-M_alt    "P 1"
_space_group_IT_number       1

loop_
  _space_group_symop_operation_xyz
  'x, y, z'

loop_
  _atom_site_type_symbol
  _atom_site_label
  _atom_site_symmetry_multiplicity
  _atom_site_fract_x
  _atom_site_fract_y
  _atom_site_fract_z
  _atom_site_occupancy
  N   N1        1.0  0.7978584274944855  0.41282133519178554  0.5703702665826169  1.0000
  C   C1        1.0  0.7493273519521911  0.3307839563585899  0.5944422481457285  1.0000
  C   C2        1.0  0.6890742184984402  0.22895562823926752  0.6243217787425248  1.0000
  C   C3        1.0  0.7087383068403805  0.10104283875205344  0.6617758996949514  1.0000
  C   C4        1.0  0.6320084544897445  0.03905129370147131  0.6800021603490558  1.0000
  C   C5        1.0  0.5702266909192336  0.1337213974099165  0.6523230914047298  1.0000
  C   C6        1.0  0.4771359151412732  0.11621834213432636  0.657532265309613  1.0000
  C   C7        1.0  0.42338955377857107  0.2235387707877492  0.6259895918755753  1.0000
  C   C8        1.0  0.33518323666859934  0.20918668508732874  0.6302681480159229  1.0000
  C   C9        1.0  0.2807403412505758  0.3196296572847419  0.5977994803244762  1.0000
  N   N2        1.0  0.2369811482641715  0.40841155785030514  0.5716975733958132  1.0000
  C   C10       1.0  0.3000419955764121  0.08735443933110654  0.6661383556805858  1.0000
  C   C11       1.0  0.3528574218691398  0.9802558926472567  0.6976201712363888  1.0000
  C   C12       1.0  0.44087808135996565  0.9942137035319728  0.6934578824051851  1.0000
  O   O1        1.0  0.606683796803324  0.24591777617858912  0.6194223686800564  1.0000
  H   H1        1.0  0.7711992196293666  0.05790605732976406  0.674355939387993  1.0000
  H   H2        1.0  0.6232775049368323  0.9371209324759175  0.7098635865112759  1.0000
  H   H3        1.0  0.44999390805296874  0.3183458606169389  0.5980714899073742  1.0000
  H   H4        1.0  0.23192584755268764  0.07519896856991148  0.6697599484834251  1.0000
  H   H5        1.0  0.3255227442778639  0.886096953286775  0.7253478340316923  1.0000
  H   H6        1.0  0.4799655101425632  0.9093841123196628  0.7184019446617176  1.0000
  C   C13       1.0  0.01742381659657144  0.029368967187955564  0.5710395234435823  1.0000
  C   C14       1.0  0.10491769737221679  0.025347314134223753  0.5963103127303537  1.0000
  C   C15       1.0  0.14832982576457998  0.9063950333184664  0.6088489131354125  1.0000
  C   C16       1.0  0.1049176966957659  0.7902393454710063  0.596310251670154  1.0000
  C   C17       1.0  0.01742382563924072  0.7918539089099602  0.5710395977901979  1.0000
  C   C18       1.0  0.9741033784136915  0.9120068012337114  0.5585273583310364  1.0000
  Cl  Cl1       1.0  0.2576305287965319  0.9028745474129005  0.6404180603499687  1.0000
  H   H7        1.0  0.984466404108875  0.3581869717798085  0.5615197328655392  1.0000
  H   H8        1.0  0.13971614010794764  0.11427306948583582  0.6063610083218707  1.0000
  H   H9        1.0  0.13971610659953493  0.6990718769940677  0.6063609149441596  1.0000
  H   H10       1.0  0.9066254424033215  0.9141800949094555  0.5390377259263872  1.0000
  H   H11       1.0  0.9844663999767111  0.46515900514553793  0.561519977970133  1.0000
  C   C19       1.0  0.017423855477833206  0.4106114272793677  0.18979107701628806  1.0000
  C   C20       1.0  0.9888483890348073  0.5403674758109922  0.17850742946875786  1.0000
  C   C21       1.0  0.9744116928646268  0.604740695888677  0.05591679717806852  1.0000
  C   C22       1.0  0.9888483126468602  0.5403673402943068  0.9433562595486169  1.0000
  C   C23       1.0  0.01742380051766612  0.41061141908214105  0.9522879804797046  1.0000
  C   C24       1.0  0.031545791084323094  0.34635640439640825  0.07604481337948776  1.0000
  S   S1        1.0  0.9380763299636651  0.7706176136073333  0.042995649468958064  1.0000
  C   C25       1.0  0.8266212224858266  0.726377081707847  0.04617090135229307  1.0000
  H   H12       1.0  0.028161081554982426  0.3616963347279305  0.5213576071489343  1.0000
  H   H13       1.0  0.9774970567532391  0.5919069593220481  0.26459217188558304  1.0000
  H   H14       1.0  0.9774968871117731  0.591906774008411  0.849241858390724  1.0000
  H   H15       1.0  0.05357194990439895  0.24626136041990332  0.08384192552608982  1.0000
  H   H16       1.0  0.028159503863714574  0.36169567654647783  0.6283420168661502  1.0000
  H   H17       1.0  0.8115961737900023  0.6687725135111582  0.9624791626982478  1.0000
  H   H18       1.0  0.8115965366919897  0.6687738219277433  0.1387138558286869  1.0000
  H   H19       1.0  0.7874053870702937  0.8163814436018924  0.0391158663942357  1.0000
  Zn  Zn1       1.0  0.9245797554900408  0.41154530083545193  0.570760789757097  1.0000
  Zn  Zn2       1.0  0.11025979177489953  0.40967699611211383  0.5713176631869286  1.0000
  C   C26       1.0  0.0174219225911878  0.40543940361765674  0.8081597461908898  1.0000
  C   C27       1.0  0.017419652294024424  0.415784511025733  0.33391884026042606  1.0000
  C   C28       1.0  0.017419477475052236  0.647728038846721  0.5658659954032592  1.0000
  C   C29       1.0  0.01742203405048226  0.17349431662859183  0.5762126600747397  1.0000
  O   O2        1.0  0.08788284775740318  0.41680596934517666  0.38250076479278183  1.0000
  O   O3        1.0  0.08788557832442456  0.40299896583239114  0.7600001019786105  1.0000
  O   O4        1.0  0.08788265396553707  0.5986501124956574  0.5643461811002832  1.0000
  O   O5        1.0  0.08788570875627855  0.221154832606701  0.5781545881371737  1.0000
  O   O6        1.0  0.9469537751451783  0.6000674649798385  0.5639238646099889  1.0000
  O   O7        1.0  0.9469566995002601  0.4044178781236236  0.7595777162647706  1.0000
  O   O8        1.0  0.9469539689896954  0.4182248363943215  0.3820768181715888  1.0000
  O   O9        1.0  0.946956829985099  0.22257369037002972  0.5777307388530535  1.0000
