data_image0
_chemical_formula_structural       NC9NC3OH6C6OCH8C7NH5Zn2C4O8
_chemical_formula_sum              "N3 C30 O10 H19 Zn2"
_cell_length_a       15.78231758774541
_cell_length_b       9.273888216677433
_cell_length_c       10.302823150593486
_cell_angle_alpha    85.7605446997574
_cell_angle_beta     90.08385050025007
_cell_angle_gamma    89.05820199757643

_space_group_name_H-M_alt    "P 1"
_space_group_IT_number       1

loop_
  _space_group_symop_operation_xyz
  'x, y, z'

loop_
  _atom_site_type_symbol
  _atom_site_label
  _atom_site_symmetry_multiplicity
  _atom_site_fract_x
  _atom_site_fract_y
  _atom_site_fract_z
  _atom_site_occupancy
  N   N1        1.0  0.7886381574031702  0.5693627319824943  0.5752803114944314  1.0000
  C   C1        1.0  0.7406424670659475  0.47823556723083027  0.5990672437586182  1.0000
  C   C2        1.0  0.6810538767888407  0.36512460531450364  0.6285929588876027  1.0000
  C   C3        1.0  0.7015527384470415  0.2230390096135415  0.6656026306756022  1.0000
  C   C4        1.0  0.6252274499262622  0.1541787678619575  0.6836134937915348  1.0000
  C   C5        1.0  0.5628278585643275  0.2593383702305634  0.6562633680542653  1.0000
  C   C6        1.0  0.46985130970583827  0.2398959669673859  0.661411725295632  1.0000
  C   C7        1.0  0.4154045630958078  0.3591075571271254  0.6302419503824483  1.0000
  C   C8        1.0  0.3272919093215493  0.34316525257141706  0.6344706383095802  1.0000
  C   C9        1.0  0.27212825058379086  0.4658453657879329  0.6023857188231565  1.0000
  N   N2        1.0  0.227789656879385  0.5644643489269974  0.5765922959423713  1.0000
  C   C10       1.0  0.2929457592376661  0.2078339281278061  0.669917524231002  1.0000
  C   C11       1.0  0.34646012275107496  0.08886880457967994  0.7010272122187944  1.0000
  C   C12       1.0  0.4343896919882125  0.1043731484569701  0.696913421642273  1.0000
  O   O1        1.0  0.5985527582023702  0.3839661684118352  0.6237524858859389  1.0000
  H   H1        1.0  0.7642951667434216  0.17512264949511924  0.6780327862169695  1.0000
  H   H2        1.0  0.6171617094277583  0.04095446751745846  0.713120750007112  1.0000
  H   H3        1.0  0.4413901955843555  0.4644193237584149  0.6026532677963288  1.0000
  H   H4        1.0  0.2249089391918584  0.19433162463428477  0.6734968812508493  1.0000
  H   H5        1.0  0.319739937042435  0.9842770038393843  0.7284277077134491  1.0000
  H   H6        1.0  0.4740307282714039  0.010144392683791414  0.7215627326502023  1.0000
  C   C13       1.0  0.010705995760672993  0.14342363755088638  0.5746173264973606  1.0000
  C   C14       1.0  0.9909185045421076  0.22690713362803883  0.4585978145830307  1.0000
  C   C15       1.0  0.9639221776765868  0.1624836173394857  0.34765016772405355  1.0000
  C   C16       1.0  0.9565566313799209  0.011584889195972448  0.352304643377197  1.0000
  C   C17       1.0  0.9772308447717983  0.9268963985098939  0.4658295100731362  1.0000
  C   C18       1.0  0.005729949878135576  0.990392275279714  0.5772664844450046  1.0000
  O   O2        1.0  0.9446482600512389  0.252128486189396  0.23544902869729523  1.0000
  C   C19       1.0  0.9163670004387793  0.2015193294712454  0.11588952764059557  1.0000
  H   H7        1.0  0.017607419941483737  0.2200312332531238  0.8941232673325163  1.0000
  H   H8        1.0  0.9944973725646219  0.3437427838518168  0.4547603778035938  1.0000
  H   H9        1.0  0.935641346449927  0.9583812308005275  0.2682773063515882  1.0000
  H   H10       1.0  0.972827605543439  0.8104770944362252  0.46538405577180875  1.0000
  H   H11       1.0  0.013928899320806654  0.6913701700968978  0.7915771096213213  1.0000
  H   H12       1.0  0.855559990177873  0.14407356271904326  0.13067021823251568  1.0000
  H   H13       1.0  0.965015759945645  0.1283683902290078  0.07710612530378858  1.0000
  H   H14       1.0  0.9060613296543435  0.2953196933333908  0.0440818690807252  1.0000
  C   C20       1.0  0.008217993073853291  0.5669079760370499  0.19469382551007053  1.0000
  C   C21       1.0  0.9193590985793285  0.5783509429328275  0.1926317795171637  1.0000
  C   C22       1.0  0.8751509616637583  0.5840438084452773  0.07450338407924462  1.0000
  C   C23       1.0  0.9193590826553606  0.5783508489494349  0.9573307853248547  1.0000
  C   C24       1.0  0.00821799261190792  0.5669079685506391  0.957189992100052  1.0000
  C   C25       1.0  0.05218316138778012  0.5612462401382778  0.07641717732872877  1.0000
  C   C26       1.0  0.7840575989234164  0.5957742930262111  0.07351857958176744  1.0000
  N   N3        1.0  0.7108482980652215  0.6052019462179037  0.07272708441030318  1.0000
  H   H15       1.0  0.041875892735380615  0.5625739780964172  0.5227971132057101  1.0000
  H   H16       1.0  0.8843142817779607  0.5828639020440263  0.282677173256221  1.0000
  H   H17       1.0  0.8843143160091071  0.5828637954878721  0.86652763652677  1.0000
  H   H18       1.0  0.12070793994370566  0.5524218608267268  0.07715801001289879  1.0000
  H   H19       1.0  0.04187586570453128  0.5625737469133745  0.6298144120892033  1.0000
  Zn  Zn1       1.0  0.9153678129437449  0.5679453123292801  0.575666400909228  1.0000
  Zn  Zn2       1.0  0.10106004199668805  0.5658699984324702  0.5762167826681703  1.0000
  C   C27       1.0  0.008249836732920457  0.5611628716269141  0.8130439054263703  1.0000
  C   C28       1.0  0.008180035270542119  0.5726542360722142  0.3388394172785989  1.0000
  C   C29       1.0  0.00666618212663983  0.8302972235249368  0.5715921889253606  1.0000
  C   C30       1.0  0.009763636692436739  0.30351815224945966  0.5802911973891531  1.0000
  O   O3        1.0  0.07863656643063655  0.5737888711205041  0.3874248419929327  1.0000
  O   O4        1.0  0.07872941719001281  0.5584520334208165  0.7648758306016916  1.0000
  O   O5        1.0  0.07744964610838645  0.7757814368636622  0.5699018630906445  1.0000
  O   O6        1.0  0.07991627408747748  0.356459478702124  0.5823987120046246  1.0000
  O   O7        1.0  0.9365115174853018  0.777355832769399  0.5694844713781317  1.0000
  O   O8        1.0  0.9377912783836602  0.5600281619610576  0.7644583750849916  1.0000
  O   O9        1.0  0.9376984279759363  0.5753649494058553  0.38700582541325823  1.0000
  O   O10       1.0  0.9389781356899092  0.3580355466727827  0.5819797927296633  1.0000
