data_image0
_chemical_formula_structural       NC9NC3OH6C9H8C7NH5Zn2C4O8
_chemical_formula_sum              "N3 C32 O9 H19 Zn2"
_cell_length_a       15.78231758774541
_cell_length_b       9.275152443626249
_cell_length_c       10.302823150593486
_cell_angle_alpha    85.36323106840959
_cell_angle_beta     90.08385050025007
_cell_angle_gamma    90.20707041648352

_space_group_name_H-M_alt    "P 1"
_space_group_IT_number       1

loop_
  _space_group_symop_operation_xyz
  'x, y, z'

loop_
  _atom_site_type_symbol
  _atom_site_label
  _atom_site_symmetry_multiplicity
  _atom_site_fract_x
  _atom_site_fract_y
  _atom_site_fract_z
  _atom_site_occupancy
  N   N1        1.0  0.80712055938381  0.5697871729036843  0.5655088846038105  1.0000
  C   C1        1.0  0.7580516634351806  0.4786353624171851  0.5898632079560955  1.0000
  C   C2        1.0  0.6971309641281149  0.36549380915324114  0.6200931933422793  1.0000
  C   C3        1.0  0.7159564821788208  0.22336978578995548  0.6579875420646222  1.0000
  C   C4        1.0  0.6388202258412328  0.15449092048892266  0.6764271542544515  1.0000
  C   C5        1.0  0.5776591002612947  0.2596789637256536  0.648422266335406  1.0000
  C   C6        1.0  0.4844535780079001  0.24023130218063815  0.6536916790970757  1.0000
  C   C7        1.0  0.4314107875930702  0.3594751336292221  0.6217796491818957  1.0000
  C   C8        1.0  0.3431103811244908  0.34352851740847057  0.6261075997334411  1.0000
  C   C9        1.0  0.2893915274157353  0.4662418099908554  0.5932588289506933  1.0000
  N   N2        1.0  0.2462143705494501  0.564887465059358  0.5668513681778817  1.0000
  C   C10       1.0  0.30717043255924603  0.20816059202433657  0.6623971080237157  1.0000
  C   C11       1.0  0.35928374251742273  0.08916329384532418  0.6942475164221522  1.0000
  C   C12       1.0  0.4473959065812034  0.10467183093930243  0.690037190124732  1.0000
  O   O1        1.0  0.614851742835375  0.3843404680325957  0.6151354058711449  1.0000
  H   H1        1.0  0.7781345989804078  0.17544046648522538  0.6707160424055825  1.0000
  H   H2        1.0  0.6294210415248677  0.04123599814393897  0.7066393864137743  1.0000
  H   H3        1.0  0.4586366779037927  0.4648153822821184  0.593535256983595  1.0000
  H   H4        1.0  0.2389745957381919  0.1946546367745856  0.6660605353281142  1.0000
  H   H5        1.0  0.3313317780327446  0.9845432058013031  0.7222992387577816  1.0000
  H   H6        1.0  0.4859272097817596  0.010417590592616266  0.7152732038619078  1.0000
  C   C13       1.0  0.024172108388875957  0.14373288140646023  0.5674979523388943  1.0000
  C   C14       1.0  0.9936075967107956  0.2268133420634142  0.4571075827094919  1.0000
  C   C15       1.0  0.9709188149946231  0.16162517460950854  0.3446762584338223  1.0000
  C   C16       1.0  0.9784382885427455  0.012199328519038488  0.3404094810062417  1.0000
  C   C17       1.0  0.007345981626406761  0.9274492088810822  0.4498626332570861  1.0000
  C   C18       1.0  0.02917084686115423  0.9909306210611869  0.5648735368329361  1.0000
  C   C19       1.0  0.955483354091555  0.9453059679421525  0.22398142692755996  1.0000
  C   C20       1.0  0.9362639605211708  0.8892650780674314  0.12649119165719647  1.0000
  C   C21       1.0  0.91294502542093  0.8212573664316929  0.008203890325692687  1.0000
  H   H7        1.0  0.14591715479031064  0.22402581506493835  0.8271557412637198  1.0000
  H   H8        1.0  0.9891444537375601  0.34338063061083757  0.4566855538821921  1.0000
  H   H9        1.0  0.9482658960019702  0.22811771666721015  0.2605225368335251  1.0000
  H   H10       1.0  0.010913261704136756  0.8110993730777192  0.44625176421572466  1.0000
  H   H11       1.0  0.10842206712707592  0.6947468822005086  0.7424584612810639  1.0000
  H   H12       1.0  0.9284339763423209  0.7043627015506781  0.02038015771221957  1.0000
  H   H13       1.0  0.8439849413527969  0.8346094321372743  0.9902194310854298  1.0000
  H   H14       1.0  0.9487257562310139  0.8732066379853901  0.9242762285246822  1.0000
  C   C22       1.0  0.026671485366998038  0.5673317530589048  0.18493768282861667  1.0000
  C   C23       1.0  0.9379473548181873  0.5787778147544449  0.18280438873471017  1.0000
  C   C24       1.0  0.893806262841737  0.5844722199269319  0.06464054743203418  1.0000
  C   C25       1.0  0.9379473377873759  0.5787777207456335  0.9475033951275762  1.0000
  C   C26       1.0  0.02667148481688497  0.5673317455704692  0.9474338494652117  1.0000
  C   C27       1.0  0.07056997535560416  0.5616684859192334  0.0666962866876617  1.0000
  C   C28       1.0  0.8028510501460178  0.5962058770680263  0.06358270464319293  1.0000
  N   N3        1.0  0.7297527788621029  0.6056360800091962  0.062732509451628  1.0000
  H   H15       1.0  0.06027834348759331  0.5629965829698318  0.5130679555820494  1.0000
  H   H16       1.0  0.9029556871854061  0.5832919944149044  0.27282168313821176  1.0000
  H   H17       1.0  0.9029557201616394  0.5832918878299318  0.8566721470722181  1.0000
  H   H18       1.0  0.13899082910030391  0.552841720016229  0.06749206318790502  1.0000
  H   H19       1.0  0.06027831373409831  0.5629963517242644  0.6200852559049732  1.0000
  Zn  Zn1       1.0  0.933833521957697  0.56836936990321  0.5659037993922651  1.0000
  Zn  Zn2       1.0  0.1195013100162825  0.5662934947288039  0.5664671028152717  1.0000
  C   C29       1.0  0.026635668868877804  0.5615850948604963  0.8033235338681752  1.0000
  C   C30       1.0  0.026701201330681767  0.5730795671948854  0.3290474962785426  1.0000
  C   C31       1.0  0.028221612455039846  0.8307922353050521  0.5601960883660029  1.0000
  C   C32       1.0  0.02511518416323777  0.3038706943571916  0.5721750161738568  1.0000
  O   O2        1.0  0.09717109510009325  0.5742145091101187  0.37762585633969237  1.0000
  O   O3        1.0  0.09708332375490403  0.558873523496511  0.7551723377145665  1.0000
  O   O4        1.0  0.0983630434237488  0.7762617046140898  0.5588451977764917  1.0000
  O   O5        1.0  0.09589131213629831  0.35682633901998706  0.5739528987097702  1.0000
  O   O6        1.0  0.9574434564783867  0.7778365263219915  0.5584180032987056  1.0000
  O   O7        1.0  0.9561637470315295  0.5604500783075153  0.7547450686445769  1.0000
  O   O8        1.0  0.9562515181365187  0.5757910136526412  0.3771970265196336  1.0000
  O   O9        1.0  0.9549717351083794  0.3584028332450271  0.5735241662586474  1.0000
