data_image0
_chemical_formula_structural       NC9NC3OH6C6ClH5C8H10Zn2C4O8
_chemical_formula_sum              "N2 C30 O9 H21 Cl1 Zn2"
_cell_length_a       15.78231758774541
_cell_length_b       10.30297070629231
_cell_length_c       9.275657083861812
_cell_angle_alpha    85.85420563620814
_cell_angle_beta     89.58874472212382
_cell_angle_gamma    89.63144908567993

_space_group_name_H-M_alt    "P 1"
_space_group_IT_number       1

loop_
  _space_group_symop_operation_xyz
  'x, y, z'

loop_
  _atom_site_type_symbol
  _atom_site_label
  _atom_site_symmetry_multiplicity
  _atom_site_fract_x
  _atom_site_fract_y
  _atom_site_fract_z
  _atom_site_occupancy
  N   N1        1.0  0.8059516586095782  0.40540124544119127  0.41263534402792645  1.0000
  C   C1        1.0  0.7572843099431074  0.32348880543620906  0.4393632525480966  1.0000
  C   C2        1.0  0.6968620264352704  0.22181555858971658  0.47253947272436214  1.0000
  C   C3        1.0  0.7163140844521587  0.09409716414934621  0.5141260083361161  1.0000
  C   C4        1.0  0.6394810520008367  0.032200217362013506  0.5343632217184247  1.0000
  C   C5        1.0  0.5778559815213975  0.12672666067295935  0.5036302460916435  1.0000
  C   C6        1.0  0.4847357162558128  0.10925064214471525  0.5094141622694763  1.0000
  C   C7        1.0  0.4311679201118679  0.2164073574516796  0.4743913001998874  1.0000
  C   C8        1.0  0.3429373818047057  0.20207747838967904  0.4791419210333987  1.0000
  C   C9        1.0  0.28867829372188475  0.31235193112871684  0.44309089725068485  1.0000
  N   N2        1.0  0.2450668654051571  0.400998357111215  0.4141090961986107  1.0000
  C   C10       1.0  0.3075930770282716  0.08043140682529337  0.5189697859122  1.0000
  C   C11       1.0  0.360230282622828  0.9734962576222562  0.5539250754889338  1.0000
  C   C12       1.0  0.44827450511370304  0.9874324653212152  0.5493035500518499  1.0000
  O   O1        1.0  0.6144993406336071  0.23875227752351402  0.46709949747308777  1.0000
  H   H1        1.0  0.7787037807811811  0.05102567587353102  0.5280940378983763  1.0000
  H   H2        1.0  0.6305810548842737  0.9304248434433302  0.5675193399487868  1.0000
  H   H3        1.0  0.4579303206595362  0.31106954624990424  0.44339291838796635  1.0000
  H   H4        1.0  0.23945642692147404  0.06829473291968213  0.5229909588629111  1.0000
  H   H5        1.0  0.3327386368473864  0.8794812308719464  0.5847120064579523  1.0000
  H   H6        1.0  0.48722072386402965  0.902732339225894  0.5769997582915447  1.0000
  C   C13       1.0  0.025513259003074218  0.02195235102626203  0.41337844181194106  1.0000
  C   C14       1.0  0.11286408012251803  0.018061858873981373  0.44143742576049805  1.0000
  C   C15       1.0  0.15620522664554382  0.8991746561257665  0.45535944392583816  1.0000
  C   C16       1.0  0.11286407979173285  0.7829538898938481  0.44143735796336125  1.0000
  C   C17       1.0  0.025513267624862168  0.7844372931341417  0.4133785243614203  1.0000
  C   C18       1.0  0.9822636530375437  0.9045252442094021  0.3994857756165717  1.0000
  Cl  Cl1       1.0  0.26532721458886677  0.8958180209713471  0.49041170069989026  1.0000
  H   H7        1.0  0.9926097386970488  0.3507209458311997  0.4028083069423203  1.0000
  H   H8        1.0  0.1476056251872031  0.10703977952518229  0.4525970418323966  1.0000
  H   H9        1.0  0.14760559220740777  0.6918385865487633  0.45259693815206914  1.0000
  H   H10       1.0  0.9148960491612304  0.9065973824472954  0.3778457992549469  1.0000
  H   H11       1.0  0.9926097331773314  0.45769298046907525  0.40280857908996803  1.0000
  C   C19       1.0  0.02767157125896058  0.4012160486285903  0.9900658211683222  1.0000
  C   C20       1.0  0.0715630231812705  0.4997425688195034  0.05515350959027843  1.0000
  C   C21       1.0  0.1079727835611397  0.6039007210059093  0.9715371222666231  1.0000
  C   C22       1.0  0.10174863066579132  0.6086340177867742  0.8208773467613106  1.0000
  C   C23       1.0  0.05968724897790767  0.5106704175484331  0.7543431964807557  1.0000
  C   C24       1.0  0.023354969576544926  0.405173544937228  0.8366911206674259  1.0000
  C   C25       1.0  0.15578160286368492  0.7075310707203262  0.042897476082238484  1.0000
  C   C26       1.0  0.2488509159832799  0.6695515320055543  0.06105444204121557  1.0000
  H   H12       1.0  0.9896382320105032  0.1944837812636322  0.2877652240518773  1.0000
  H   H13       1.0  0.07594397005528153  0.49729168920173117  0.1718932384960432  1.0000
  H   H14       1.0  0.13031383855118706  0.6876973035794627  0.7545869858822289  1.0000
  H   H15       1.0  0.05750681601911167  0.5157517157945728  0.637361558461925  1.0000
  H   H16       1.0  0.9233124544745445  0.25655000446947285  0.5685209662652952  1.0000
  H   H17       1.0  0.151141291749894  0.8018280940571156  0.9770415960694048  1.0000
  H   H18       1.0  0.12759981653157992  0.7225172126931594  0.15067938924819968  1.0000
  H   H19       1.0  0.2548828179832461  0.5771338462450954  0.12982286908307694  1.0000
  H   H20       1.0  0.27866878310676446  0.6573039612604039  0.9539797015485529  1.0000
  H   H21       1.0  0.2829252088161964  0.7471435649219655  0.11373541004327459  1.0000
  Zn  Zn1       1.0  0.9326707758268927  0.40412723798520567  0.41306895468250193  1.0000
  Zn  Zn2       1.0  0.11834765961340632  0.4022618235562787  0.4136872694668843  1.0000
  C   C27       1.0  0.024169011295961162  0.39925349306689095  0.6766607812926433  1.0000
  C   C28       1.0  0.02685145100881625  0.4071371868633493  0.15009559109425497  1.0000
  C   C29       1.0  0.025538207575516614  0.6402845709474838  0.40763410440349945  1.0000
  C   C30       1.0  0.025482190978817654  0.1661045501729428  0.4191223446259824  1.0000
  O   O2        1.0  0.09703962089454654  0.40841079595432506  0.20403769100947122  1.0000
  O   O3        1.0  0.09490530204924474  0.39656309623694463  0.6231875530295292  1.0000
  O   O4        1.0  0.09600998783809667  0.591198756429107  0.4059466048700242  1.0000
  O   O5        1.0  0.09593487229782927  0.21377514518073082  0.4212785308738578  1.0000
  O   O6        1.0  0.9550834997801007  0.5926139169987061  0.4054776930569457  1.0000
  O   O7        1.0  0.9539788143793225  0.3979798162543091  0.6227185643552837  1.0000
  O   O8        1.0  0.9561131421174835  0.4098274626281524  0.20356696920873452  1.0000
  O   O9        1.0  0.9550083929662627  0.21519180307394237  0.4208079171496568  1.0000
