data_image0
_chemical_formula_structural       NC9NC3OH6C6FH5C6FH5Zn2C4O8
_chemical_formula_sum              "N2 C28 O9 H16 F2 Zn2"
_cell_length_a       15.78231758774541
_cell_length_b       9.275642734913903
_cell_length_c       9.275646106892307
_cell_angle_alpha    84.86962330666421
_cell_angle_beta     90.10253560025426
_cell_angle_gamma    90.2347076146716

_space_group_name_H-M_alt    "P 1"
_space_group_IT_number       1

loop_
  _space_group_symop_operation_xyz
  'x, y, z'

loop_
  _atom_site_type_symbol
  _atom_site_label
  _atom_site_symmetry_multiplicity
  _atom_site_fract_x
  _atom_site_fract_y
  _atom_site_fract_z
  _atom_site_occupancy
  N   N1        1.0  0.807302209967452  0.5864099862921341  0.40838667762093817  1.0000
  C   C1        1.0  0.7582118369257479  0.49499099612072794  0.43527864189437904  1.0000
  C   C2        1.0  0.6972644793906436  0.38151780377585576  0.4686584956289406  1.0000
  C   C3        1.0  0.7160564956910296  0.23897812843923116  0.5105007164904314  1.0000
  C   C4        1.0  0.6389040169131578  0.1698969392877423  0.5308619494576872  1.0000
  C   C5        1.0  0.5777676941147263  0.27539212382647427  0.49993979534879673  1.0000
  C   C6        1.0  0.4845576032166094  0.25588659010121706  0.5057588163722142  1.0000
  C   C7        1.0  0.4315428992718498  0.37548055857438545  0.47052126544377226  1.0000
  C   C8        1.0  0.3432387479514917  0.3594864037756411  0.47530068144673043  1.0000
  C   C9        1.0  0.2895487963746004  0.48256011843290847  0.4390287107618105  1.0000
  N   N2        1.0  0.2463948728547837  0.5814955215924305  0.4098692951015468  1.0000
  C   C10       1.0  0.3072669266382739  0.22372025760292513  0.5153723527363332  1.0000
  C   C11       1.0  0.35935220900203296  0.10437349471282897  0.5505418934164052  1.0000
  C   C12       1.0  0.4474680148047387  0.11992827948215079  0.5458923620764582  1.0000
  O   O1        1.0  0.6149897131431606  0.40041878434739697  0.4631847090225889  1.0000
  H   H1        1.0  0.778223305074657  0.1909092384023543  0.5245549010116848  1.0000
  H   H2        1.0  0.6294781387482681  0.05631061454433617  0.5642218379210884  1.0000
  H   H3        1.0  0.4587935913567659  0.4811307495115018  0.4393331523952111  1.0000
  H   H4        1.0  0.2390679177289117  0.21017406477788936  0.5194179107238033  1.0000
  H   H5        1.0  0.3313756123794822  0.999445578295822  0.5815172591146498  1.0000
  H   H6        1.0  0.48597711970598484  0.02539714080077715  0.573758283842779  1.0000
  C   C13       1.0  0.024232633277390336  0.16043146440002687  0.4097397586058529  1.0000
  C   C14       1.0  0.007811192035884318  0.24531689202062368  0.2792939624580435  1.0000
  C   C15       1.0  0.9993820122874839  0.1815182482426323  0.1493203951087585  1.0000
  C   C16       1.0  0.00731051795760429  0.032158466364957894  0.14749584400657767  1.0000
  C   C17       1.0  0.022200291225411783  0.945722198405766  0.2759173948244167  1.0000
  C   C18       1.0  0.029472486354426897  0.007462738123553914  0.408528700714627  1.0000
  F   F1        1.0  0.9844892600816552  0.26511413148958174  0.02442328734880328  1.0000
  H   H7        1.0  0.11183891767155818  0.23516296936973724  0.732428970240127  1.0000
  H   H8        1.0  0.003484831792625931  0.3620103673651982  0.2774321423851238  1.0000
  H   H9        1.0  0.0011074090304541429  0.9828416999235556  0.046530793843468476  1.0000
  H   H10       1.0  0.02602586611234803  0.8295617066546832  0.27196350802134406  1.0000
  H   H11       1.0  0.08507064102284567  0.7070848284389022  0.6276075251431312  1.0000
  C   C19       1.0  0.0267818676389584  0.588462270276596  0.9852870091133443  1.0000
  C   C20       1.0  0.10445261556115826  0.6026675277651508  0.05758825222310682  1.0000
  C   C21       1.0  0.1809893872446673  0.6033425090319866  0.9823986405448686  1.0000
  C   C22       1.0  0.18119867252543642  0.5896793333603618  0.8340429081065035  1.0000
  C   C23       1.0  0.10487047587135456  0.577863937095318  0.7598107507566905  1.0000
  C   C24       1.0  0.026923200100601008  0.5794319576770208  0.8329814657289205  1.0000
  F   F2        1.0  0.2552670459144111  0.6155329928911628  0.05406576547989972  1.0000
  H   H12       1.0  0.8295932713110461  0.4734901479252518  0.09794407737153632  1.0000
  H   H13       1.0  0.10600119258011564  0.609823110402401  0.1735103283606303  1.0000
  H   H14       1.0  0.24061634604079551  0.5896177067961998  0.7759272952094682  1.0000
  H   H15       1.0  0.10675990472490704  0.5709486989511483  0.6438942047541012  1.0000
  H   H16       1.0  0.893465754364301  0.5079667673089738  0.5577909196463735  1.0000
  Zn  Zn1       1.0  0.9340148414655121  0.5849878368213635  0.4088228626247128  1.0000
  Zn  Zn2       1.0  0.11968214201482485  0.5829057743549997  0.4094449257323125  1.0000
  C   C25       1.0  0.02685907775226526  0.5753933648574177  0.6727572728733313  1.0000
  C   C26       1.0  0.02683994448993232  0.5925020418080862  0.14551066133899515  1.0000
  C   C27       1.0  0.028476706646258343  0.8474171202562668  0.40300601519218393  1.0000
  C   C28       1.0  0.02522224153443875  0.3204765535389298  0.41526199823597354  1.0000
  O   O2        1.0  0.097319169634001  0.593061402213301  0.19951926139039955  1.0000
  O   O3        1.0  0.09729703087638208  0.5732526836318768  0.6192203903961886  1.0000
  O   O4        1.0  0.09860233708482724  0.7929153009900716  0.40139433595732266  1.0000
  O   O5        1.0  0.0960138001156583  0.37339879703548684  0.41734520738161884  1.0000
  O   O6        1.0  0.9576831200055498  0.7944948148530331  0.4009225807555328  1.0000
  O   O7        1.0  0.956377824499476  0.5748339310773021  0.6187485557586934  1.0000
  O   O8        1.0  0.9563999627131553  0.5946426178860358  0.19904569150953644  1.0000
  O   O9        1.0  0.9550945931455808  0.37498000123999753  0.4168717457285287  1.0000
