data_image0
_chemical_formula_structural       NC9NC3OH6C7H8C6NCOH7Zn2C4O8
_chemical_formula_sum              "N3 C30 O10 H21 Zn2"
_cell_length_a       15.78231758774541
_cell_length_b       9.274341958901593
_cell_length_c       10.29962270195845
_cell_angle_alpha    85.54764645947503
_cell_angle_beta     90.10253899755935
_cell_angle_gamma    89.0114341261544

_space_group_name_H-M_alt    "P 1"
_space_group_IT_number       1

loop_
  _space_group_symop_operation_xyz
  'x, y, z'

loop_
  _atom_site_type_symbol
  _atom_site_label
  _atom_site_symmetry_multiplicity
  _atom_site_fract_x
  _atom_site_fract_y
  _atom_site_fract_z
  _atom_site_occupancy
  N   N1        1.0  0.7875756841725668  0.5692679681981831  0.5691294788809513  1.0000
  C   C1        1.0  0.7396293581716459  0.4781247016686814  0.5932567351396179  1.0000
  C   C2        1.0  0.6801020411082431  0.3649937536605494  0.6232048751690011  1.0000
  C   C3        1.0  0.7006778551908991  0.22288302311000519  0.6607451580340546  1.0000
  C   C4        1.0  0.6243898764173493  0.154010627343663  0.6790131973326472  1.0000
  C   C5        1.0  0.5619333400866248  0.2591888475036668  0.6512703704554808  1.0000
  C   C6        1.0  0.4689673386724864  0.23974303572069622  0.6564913583338865  1.0000
  C   C7        1.0  0.41445600329167487  0.35897567100904504  0.6248763603422349  1.0000
  C   C8        1.0  0.3263519996663444  0.34303057417267113  0.6291646056947546  1.0000
  C   C9        1.0  0.2711218711895388  0.46573234181504675  0.5966215067791794  1.0000
  N   N2        1.0  0.226729844121454  0.5643687318469159  0.5704597663829643  1.0000
  C   C10       1.0  0.29207918505839925  0.20767538174159617  0.6651169353522055  1.0000
  C   C11       1.0  0.34565800471826746  0.08868925817161366  0.6966709271761646  1.0000
  C   C12       1.0  0.4335791611739675  0.10419631715508859  0.6924992149491531  1.0000
  O   O1        1.0  0.5975907321541344  0.3838386744765405  0.6182940585669772  1.0000
  H   H1        1.0  0.7634462239718641  0.17495816798609076  0.6733542401490349  1.0000
  H   H2        1.0  0.6163854604789302  0.04076630327101971  0.7089432880026678  1.0000
  H   H3        1.0  0.4403845667891261  0.46430600943662115  0.5968943515589928  1.0000
  H   H4        1.0  0.224049690795347  0.19417071255369245  0.6687467338103967  1.0000
  H   H5        1.0  0.3189944979360646  0.9840790127566846  0.7244620600068623  1.0000
  H   H6        1.0  0.47327125298957307  0.009950930908663835  0.7175004482399394  1.0000
  C   C13       1.0  0.009850860835558306  0.14321261615090508  0.5700252674648669  1.0000
  C   C14       1.0  0.019842673140567202  0.22640217654157757  0.4511481396149617  1.0000
  C   C15       1.0  0.021404361080091805  0.16138716894591165  0.3335061023459005  1.0000
  C   C16       1.0  0.012081758890427619  0.011860322183625094  0.3319094820730566  1.0000
  C   C17       1.0  0.004729405144962229  0.9270330840633418  0.44983367165129007  1.0000
  C   C18       1.0  0.004462805463681496  0.9904129016499806  0.5695752518714501  1.0000
  C   C19       1.0  0.015635476840939688  0.9417826133137362  0.20549394171773705  1.0000
  H   H7        1.0  0.9394048137798153  0.22226718999033102  0.8706898136948815  1.0000
  H   H8        1.0  0.024644661740926388  0.34295551650815836  0.44893050780928534  1.0000
  H   H9        1.0  0.028991067029837003  0.22814556248369944  0.24336908045358974  1.0000
  H   H10       1.0  0.0011464872582771513  0.8105685053057279  0.4481648765167061  1.0000
  H   H11       1.0  0.9604051386105561  0.69338596106885  0.7737103254101201  1.0000
  H   H12       1.0  0.082269370233792  0.9114844212554558  0.18442300035142778  1.0000
  H   H13       1.0  0.99090832094917  0.016845858402718017  0.12437538793550851  1.0000
  H   H14       1.0  0.9765419525377896  0.8430486423870043  0.21057006531638756  1.0000
  C   C20       1.0  0.0070771028309164485  0.566673043429522  0.18844328999196835  1.0000
  C   C21       1.0  0.9182159822134015  0.5787917667694031  0.1860748797157188  1.0000
  C   C22       1.0  0.8735886116286302  0.5872574375935049  0.06791835441073912  1.0000
  C   C23       1.0  0.9184013821169563  0.5790988582471714  0.9509030905077704  1.0000
  C   C24       1.0  0.007236582131559421  0.5669524861113227  0.9511571549588052  1.0000
  C   C25       1.0  0.05108932252359777  0.5613871494021401  0.07042916922985287  1.0000
  N   N3        1.0  0.7825613114578582  0.5974200326361256  0.06952057014968838  1.0000
  C   C26       1.0  0.7323480425010668  0.6767084680962421  0.9712546356488585  1.0000
  O   O2        1.0  0.7659527568150903  0.7597114694067189  0.884203791294143  1.0000
  H   H15       1.0  0.1746410399855356  0.5422700246340426  0.4002704664730836  1.0000
  H   H16       1.0  0.8832038643025826  0.5829357353418232  0.2761225623416095  1.0000
  H   H17       1.0  0.8840107829062936  0.5792102420623704  0.8599468285431615  1.0000
  H   H18       1.0  0.11959241070299753  0.5520636007286435  0.0713775367438092  1.0000
  H   H19       1.0  0.041264602308468845  0.5601033666534285  0.6239608122652331  1.0000
  H   H20       1.0  0.7506706166610765  0.5529276310228077  0.15154424482043516  1.0000
  H   H21       1.0  0.6640673202335825  0.6684740605604687  0.9739472421547224  1.0000
  Zn  Zn1       1.0  0.9143061109089679  0.5678503039943965  0.5695208663966143  1.0000
  Zn  Zn2       1.0  0.09999946598858966  0.5657746265736618  0.5700790011076737  1.0000
  C   C27       1.0  0.007241094116234192  0.5611530243101064  0.8069909850585546  1.0000
  C   C28       1.0  0.007066498998158588  0.5724737037357648  0.3326090150361358  1.0000
  C   C29       1.0  0.005475834946527147  0.8302721795874393  0.5644852669993059  1.0000
  C   C30       1.0  0.00883170584041526  0.30335281608528497  0.5751148030620445  1.0000
  O   O3        1.0  0.07753264078241462  0.573626456335693  0.381204161888284  1.0000
  O   O4        1.0  0.0777119190284068  0.5584237922115662  0.7588190762815157  1.0000
  O   O5        1.0  0.07628550024173841  0.7757409246876878  0.5629939895283775  1.0000
  O   O6        1.0  0.07895899611853174  0.3563093348513018  0.5770291510738728  1.0000
  O   O7        1.0  0.9353465174109856  0.7773155964266516  0.5625707162331197  1.0000
  O   O8        1.0  0.9367729251570645  0.5600001970335711  0.7583957328223017  1.0000
  O   O9        1.0  0.936593646960654  0.5752028103169273  0.3807792571042252  1.0000
  O   O10       1.0  0.9380200023792818  0.3578856785507001  0.5766043436600679  1.0000
