data_image0
_chemical_formula_structural       NC9NC3OH6C9H8C7H8Zn2C4O8
_chemical_formula_sum              "N2 C32 O9 H22 Zn2"
_cell_length_a       15.78231758774541
_cell_length_b       9.275152443626249
_cell_length_c       9.274345330872308
_cell_angle_alpha    84.93071507942183
_cell_angle_beta     89.64000707228583
_cell_angle_gamma    90.20707041648352

_space_group_name_H-M_alt    "P 1"
_space_group_IT_number       1

loop_
  _space_group_symop_operation_xyz
  'x, y, z'

loop_
  _atom_site_type_symbol
  _atom_site_label
  _atom_site_symmetry_multiplicity
  _atom_site_fract_x
  _atom_site_fract_y
  _atom_site_fract_z
  _atom_site_occupancy
  N   N1        1.0  0.8144043834636934  0.581910612529762  0.40537547569112276  1.0000
  C   C1        1.0  0.765211825120101  0.49055297423044  0.4324484919501157  1.0000
  C   C2        1.0  0.7041376289435692  0.3771559356596903  0.46605307517055206  1.0000
  C   C3        1.0  0.7227707332757426  0.23471165248860704  0.5081776008346035  1.0000
  C   C4        1.0  0.6455408472949659  0.16567694688803303  0.5286756419176435  1.0000
  C   C5        1.0  0.5845219203489476  0.27110167027166665  0.49754454560276806  1.0000
  C   C6        1.0  0.49128964193432717  0.25160947487991225  0.503402187193071  1.0000
  C   C7        1.0  0.43840888919922877  0.37112300724463987  0.46792779144599805  1.0000
  C   C8        1.0  0.35008650697206467  0.35513981383867366  0.4727388746346066  1.0000
  C   C9        1.0  0.29653444737242113  0.4781307240968333  0.43622316887570123  1.0000
  N   N2        1.0  0.25349137798608024  0.5769995588371519  0.4068678217975008  1.0000
  C   C10       1.0  0.31396229348423155  0.2194651917743755  0.5130794102250267  1.0000
  C   C11       1.0  0.36591387865432373  0.10019871346650788  0.5484853055953673  1.0000
  C   C12       1.0  0.45404742122351305  0.11574283365760318  0.5438049771519564  1.0000
  O   O1        1.0  0.6218835814921851  0.3960444947198405  0.46054184585520064  1.0000
  H   H1        1.0  0.7848842193826608  0.186674759701017  0.5223269940121023  1.0000
  H   H2        1.0  0.6359882562535627  0.052166689275635614  0.5622604901040777  1.0000
  H   H3        1.0  0.46577819425947997  0.4767019601878004  0.4365304547945479  1.0000
  H   H4        1.0  0.24574785511191785  0.2059282754825711  0.5171517888964017  1.0000
  H   H5        1.0  0.337819477727595  0.9953415494598032  0.5796684644908083  1.0000
  H   H6        1.0  0.4924505851260519  0.021275313991399702  0.571858107609988  1.0000
  C   C13       1.0  0.03144583270633494  0.15583951065125357  0.4075865846738369  1.0000
  C   C14       1.0  0.0014418431701235246  0.2398529230477744  0.28487324837690964  1.0000
  C   C15       1.0  0.9793239468211052  0.17561495623108891  0.15989112400802474  1.0000
  C   C16       1.0  0.9868650855129407  0.0262251703280858  0.15514804274892002  1.0000
  C   C17       1.0  0.015217015303663262  0.9405500197373724  0.2768195393297159  1.0000
  C   C18       1.0  0.03645789700590707  0.0030594302571829157  0.40466920353228675  1.0000
  C   C19       1.0  0.9645013303690116  0.9603157882988922  0.025723030381276768  1.0000
  C   C20       1.0  0.9457769567507165  0.9050988261353621  0.917349880924839  1.0000
  C   C21       1.0  0.9230586415389753  0.8380908062654578  0.7858580720226729  1.0000
  H   H7        1.0  0.15187243130757033  0.23393797583677656  0.6962301835803291  1.0000
  H   H8        1.0  0.9969808431057576  0.3564237783241606  0.28440410812866723  1.0000
  H   H9        1.0  0.9570983298153555  0.2428187139611504  0.06634325408020536  1.0000
  H   H10       1.0  0.01880263006091143  0.8242307007858397  0.2728055860429912  1.0000
  H   H11       1.0  0.11480740562298197  0.7053748524669768  0.6020780774062198  1.0000
  H   H12       1.0  0.9384857658037623  0.7210932350360195  0.7993935860322781  1.0000
  H   H13       1.0  0.8541898760129174  0.8515948655968395  0.7658659929828273  1.0000
  H   H14       1.0  0.9592655264865321  0.8907493829726559  0.6925614971332368  1.0000
  C   C22       1.0  0.035887711574610126  0.5826715472086355  0.9823208014007099  1.0000
  C   C23       1.0  0.9860414994781963  0.6848460147385973  0.04705903312794102  1.0000
  C   C24       1.0  0.9310613377399016  0.7754761892702313  0.9645268012662407  1.0000
  C   C25       1.0  0.9239727187500731  0.7649427593173939  0.8155952560860991  1.0000
  C   C26       1.0  0.9751566512017941  0.6668095399327296  0.7488432369582112  1.0000
  C   C27       1.0  0.0320159855577955  0.5762273726119367  0.8299349875667739  1.0000
  C   C28       1.0  0.8661653821880375  0.864693381914978  0.7265267541501439  1.0000
  H   H15       1.0  0.13129514666332187  0.2673779317703908  0.11206977233512094  1.0000
  H   H16       1.0  0.9882445996548708  0.6925628602760241  0.16285670230866534  1.0000
  H   H17       1.0  0.8932732698238418  0.8529620123067065  0.017293688273936292  1.0000
  H   H18       1.0  0.9719296662956621  0.6635564458383987  0.6324516027612872  1.0000
  H   H19       1.0  0.09935245742088594  0.3669080048341691  0.5669907569104731  1.0000
  H   H20       1.0  0.9013581338477215  0.9644641132933329  0.687175453851772  1.0000
  H   H21       1.0  0.810739243503995  0.8946997247714255  0.7918115287206895  1.0000
  H   H22       1.0  0.8420474341907542  0.8116499631146294  0.6320278146878158  1.0000
  Zn  Zn1       1.0  0.9411153408039369  0.5804894719515612  0.40581447513832924  1.0000
  Zn  Zn2       1.0  0.12678026861264513  0.5784088360819042  0.4064406605801998  1.0000
  C   C29       1.0  0.03271195666619464  0.5716986708411254  0.6697375675066108  1.0000
  C   C30       1.0  0.03518569032633945  0.5872014335344444  0.14251771043305395  1.0000
  C   C31       1.0  0.03553241298165988  0.8429605754284157  0.39946960769198614  1.0000
  C   C32       1.0  0.03236516005185064  0.3159377959252905  0.41278575294538755  1.0000
  O   O2        1.0  0.10540892085400855  0.5879258209268823  0.1965189123037403  1.0000
  O   O3        1.0  0.10340410581102377  0.5693940438724217  0.616211214197588  1.0000
  O   O4        1.0  0.10568070328138779  0.7884414616366782  0.3979679160882026  1.0000
  O   O5        1.0  0.10313226058410829  0.3688784150146578  0.41476210195353347  1.0000
  O   O6        1.0  0.9647632854741899  0.7900198937304548  0.397493033543713  1.0000
  O   O7        1.0  0.9624866986045653  0.5709742096997081  0.6157362487341063  1.0000
  O   O8        1.0  0.9644915213322709  0.5895059496761901  0.196042211862391  1.0000
  O   O9        1.0  0.9622148605036225  0.3704585326235803  0.41428550975049383  1.0000
