data_image0
_chemical_formula_structural       NC9NC3OH6C6NH7C6BrH5Zn2C4O8
_chemical_formula_sum              "N3 C28 O9 H18 Br1 Zn2"
_cell_length_a       15.78231758774541
_cell_length_b       9.274771166103582
_cell_length_c       10.302972455390005
_cell_angle_alpha    85.45577943417274
_cell_angle_beta     90.08385913268748
_cell_angle_gamma    90.23039320205511

_space_group_name_H-M_alt    "P 1"
_space_group_IT_number       1

loop_
  _space_group_symop_operation_xyz
  'x, y, z'

loop_
  _atom_site_type_symbol
  _atom_site_label
  _atom_site_symmetry_multiplicity
  _atom_site_fract_x
  _atom_site_fract_y
  _atom_site_fract_z
  _atom_site_occupancy
  N   N1        1.0  0.8074976619976235  0.5696504107239326  0.5678201379539645  1.0000
  C   C1        1.0  0.75840686326933  0.47850653700967505  0.5920411097143992  1.0000
  C   C2        1.0  0.6974589772887841  0.36537483520931624  0.6221055733559855  1.0000
  C   C3        1.0  0.7162503444887162  0.22326318686575997  0.6597920012445286  1.0000
  C   C4        1.0  0.6390975373193192  0.15439031898941957  0.6781308457786432  1.0000
  C   C5        1.0  0.5779616872815493  0.25956920329839983  0.6502798424746987  1.0000
  C   C6        1.0  0.48475149197574746  0.24012323510616107  0.655520802993063  1.0000
  C   C7        1.0  0.4317373545397873  0.3593566837495248  0.6237832229688967  1.0000
  C   C8        1.0  0.3434331162809728  0.34341145603800105  0.628087843259284  1.0000
  C   C9        1.0  0.2897437492235587  0.46611406372143205  0.595418598197132  1.0000
  N   N2        1.0  0.24659029582053  0.5647511295096161  0.5691554529603711  1.0000
  C   C10       1.0  0.3074606403008838  0.2080553174218185  0.6641793117237507  1.0000
  C   C11       1.0  0.3595453565198483  0.08906838058220079  0.6958556308382768  1.0000
  C   C12       1.0  0.4476612471083145  0.10457556731143036  0.69166799390075  1.0000
  O   O1        1.0  0.6151842846489899  0.38421985307796347  0.6171753566947031  1.0000
  H   H1        1.0  0.7784169443932691  0.1753380408577414  0.6724503839581941  1.0000
  H   H2        1.0  0.6296711390833941  0.04114525797562174  0.7081773910352369  1.0000
  H   H3        1.0  0.45898855694637775  0.4646877602066286  0.5956929409388436  1.0000
  H   H4        1.0  0.23926155815241612  0.1945505381670647  0.6678229795401003  1.0000
  H   H5        1.0  0.3315682529859678  0.9844574020281144  0.7237542965766086  1.0000
  H   H6        1.0  0.4861699020545603  0.010329533875856  0.716766116545559  1.0000
  C   C13       1.0  0.024446823812166896  0.1436332080795748  0.5691875260446899  1.0000
  C   C14       1.0  0.00495021194010592  0.22715949146253922  0.453030142551863  1.0000
  C   C15       1.0  0.9933642003026394  0.1622393736989025  0.33616022340888874  1.0000
  C   C16       1.0  0.0013192188817718886  0.012415003906289579  0.33460157829320236  1.0000
  C   C17       1.0  0.019249092419201475  0.9275867735353345  0.44915934891365206  1.0000
  C   C18       1.0  0.0296491626164892  0.9907572007426957  0.5677993449574048  1.0000
  N   N3        1.0  0.9743881435340547  0.24885934681570454  0.21872843762252647  1.0000
  H   H7        1.0  0.11979941263292027  0.22222962213440778  0.8536052495288682  1.0000
  H   H8        1.0  0.0006781927096997098  0.343799865359244  0.4525184530801516  1.0000
  H   H9        1.0  0.9928059589979987  0.9610227655441886  0.24468318602612382  1.0000
  H   H10       1.0  0.02298299698936357  0.8113810963210913  0.44545255053914956  1.0000
  H   H11       1.0  0.09043892432173739  0.6930126238495503  0.7612916811754153  1.0000
  H   H12       1.0  0.968550586177198  0.36099838165722  0.21866851817739796  1.0000
  H   H13       1.0  0.9659546464484849  0.20148342630908322  0.1309453418222144  1.0000
  C   C19       1.0  0.027047960407821314  0.567195175518407  0.1872508705172169  1.0000
  C   C20       1.0  0.050854025429222904  0.42098122070729427  0.19651620251638757  1.0000
  C   C21       1.0  0.06266316532230576  0.3484512042811352  0.08417447236265985  1.0000
  C   C22       1.0  0.050854167884968104  0.4209811628164457  0.9614338124415838  1.0000
  C   C23       1.0  0.027048000518711923  0.5671951790184206  0.9497359527071492  1.0000
  C   C24       1.0  0.015259884416265912  0.6395960544401134  0.06330323830238016  1.0000
  Br  Br1       1.0  0.09504334061558839  0.14957495533975385  0.09843131254688187  1.0000
  H   H14       1.0  0.018087923849977372  0.6222289855644316  0.5110650319321561  1.0000
  H   H15       1.0  0.06033065790822478  0.36277612231314804  0.2906880343652283  1.0000
  H   H16       1.0  0.06033099299405431  0.3627761668979901  0.8756071326748112  1.0000
  H   H17       1.0  0.9968996905271735  0.7523618636521403  0.05521940214469878  1.0000
  H   H18       1.0  0.01808672976544412  0.6222284572559134  0.6180314052119082  1.0000
  Zn  Zn1       1.0  0.9342102838905963  0.568232731175661  0.568212978317777  1.0000
  Zn  Zn2       1.0  0.11987757314001368  0.5661570367525612  0.5687732446896931  1.0000
  C   C25       1.0  0.027010823829449526  0.561449064874469  0.805619372143684  1.0000
  C   C26       1.0  0.02707907185870173  0.5729425003206619  0.33136698142371146  1.0000
  C   C27       1.0  0.028661438068503298  0.8306327518149572  0.5628882481530597  1.0000
  C   C28       1.0  0.02542838362205302  0.30375708113784894  0.5740981772786851  1.0000
  O   O2        1.0  0.09754924315853253  0.5740773471530405  0.3799462932411277  1.0000
  O   O3        1.0  0.097457822338886  0.5587377258741013  0.7574649175998582  1.0000
  O   O4        1.0  0.09878976438049736  0.7761069679897139  0.5614578122904947  1.0000
  O   O5        1.0  0.09621723782461156  0.3567081160639076  0.575953300999998  1.0000
  O   O6        1.0  0.9578705558468747  0.777681652574217  0.561032921809449  1.0000
  O   O7        1.0  0.9565386244437347  0.5603141434108321  0.7570399550564408  1.0000
  O   O8        1.0  0.9566300450109473  0.5756537144255462  0.3795197698969204  1.0000
  O   O9        1.0  0.9552980396102119  0.35828447301983624  0.5755268750082618  1.0000
