data_image0
_chemical_formula_structural       NC9NC3OH6C6NH7C7H8Zn2C4O8
_chemical_formula_sum              "N3 C29 O9 H21 Zn2"
_cell_length_a       15.78231758774541
_cell_length_b       9.274771166103582
_cell_length_c       9.274345330872308
_cell_angle_alpha    85.02343958886169
_cell_angle_beta     89.64000707228583
_cell_angle_gamma    90.23039320205511

_space_group_name_H-M_alt    "P 1"
_space_group_IT_number       1

loop_
  _space_group_symop_operation_xyz
  'x, y, z'

loop_
  _atom_site_type_symbol
  _atom_site_label
  _atom_site_symmetry_multiplicity
  _atom_site_fract_x
  _atom_site_fract_y
  _atom_site_fract_z
  _atom_site_occupancy
  N   N1        1.0  0.814772815994975  0.5817533991401416  0.4079412887760263  1.0000
  C   C1        1.0  0.765558980136924  0.49040484014269126  0.4348661255981421  1.0000
  C   C2        1.0  0.7044583733922922  0.3770190711927819  0.4682867821143455  1.0000
  C   C3        1.0  0.723058301951195  0.23458894441486744  0.5101802672867688  1.0000
  C   C4        1.0  0.6458123375452981  0.16556109961918608  0.5305663360816537  1.0000
  C   C5        1.0  0.5848179643872041  0.2709753456863502  0.4996062356072428  1.0000
  C   C6        1.0  0.491581146171895  0.2514850874673318  0.5054322614225502  1.0000
  C   C7        1.0  0.43872822855775906  0.37098674234202944  0.4701517131550603  1.0000
  C   C8        1.0  0.35040212378877883  0.35500513737727646  0.47493687206801427  1.0000
  C   C9        1.0  0.2968787092036085  0.47798382455674804  0.43862065399467465  1.0000
  N   N2        1.0  0.2538586667157279  0.5768428335177123  0.40942566929590063  1.0000
  C   C10       1.0  0.31424631120549645  0.21934399892390455  0.515057347360574  1.0000
  C   C11       1.0  0.3661701187943826  0.10008937355334835  0.5502697959658394  1.0000
  C   C12       1.0  0.45430728164369605  0.11563194893919126  0.5456146796340755  1.0000
  O   O1        1.0  0.6222087251525776  0.3959057530707635  0.4628061894933859  1.0000
  H   H1        1.0  0.7851606000972611  0.18655682562821174  0.5242517460188518  1.0000
  H   H2        1.0  0.6362333095666826  0.05206212287955991  0.563967073925856  1.0000
  H   H3        1.0  0.4661221233265403  0.476555202641084  0.4389256224999425  1.0000
  H   H4        1.0  0.2460287200378883  0.20580842795747967  0.5191077695467501  1.0000
  H   H5        1.0  0.33805129626629915  0.9952426304579451  0.5812828795856462  1.0000
  H   H6        1.0  0.49268844372949583  0.021173817640989023  0.5735145865179445  1.0000
  C   C13       1.0  0.031715031783255965  0.1557246410461781  0.40946132280188774  1.0000
  C   C14       1.0  0.012808473489823502  0.24023254098731828  0.28033691659878324  1.0000
  C   C15       1.0  0.0018161349530305682  0.1763000612397405  0.15042043209675926  1.0000
  C   C16       1.0  0.009779071101418513  0.026488863161295617  0.14868779040845226  1.0000
  C   C17       1.0  0.027127016736533838  0.9406925341544435  0.2760340138039763  1.0000
  C   C18       1.0  0.03692442223762171  0.0028603648752394406  0.40791817459031376  1.0000
  N   N3        1.0  0.9834366054422435  0.2639124205649592  0.019879357968909384  1.0000
  H   H7        1.0  0.12562284205854946  0.231917513127047  0.725629512496013  1.0000
  H   H8        1.0  0.00853905352771056  0.35687723904184243  0.2797681055838619  1.0000
  H   H9        1.0  0.0017225765781094804  0.9758565023040062  0.04873151850309054  1.0000
  H   H10       1.0  0.030879751014979195  0.8245181821521912  0.27191341359217946  1.0000
  H   H11       1.0  0.09673128606768122  0.7034806333720259  0.6230106832860267  1.0000
  H   H12       1.0  0.9775993524627926  0.3760519617704934  0.019812749523199003  1.0000
  H   H13       1.0  0.9754490268877437  0.21727833271481245  0.922296752549896  1.0000
  C   C19       1.0  0.03625632133024825  0.5825142581958294  0.9848878486995698  1.0000
  C   C20       1.0  0.9864339060257682  0.6846785714261452  0.04979180444663811  1.0000
  C   C21       1.0  0.9314748523730684  0.7752997389526888  0.9674065720967047  1.0000
  C   C22       1.0  0.9243837801104509  0.764767355832848  0.8184579419990032  1.0000
  C   C23       1.0  0.9755448569911085  0.6666438891206368  0.7515467536384377  1.0000
  C   C24       1.0  0.03238309444256249  0.5760707240338834  0.8324915826015356  1.0000
  C   C25       1.0  0.8665996758183611  0.864508065017265  0.7295512326767772  1.0000
  H   H14       1.0  0.1315903234298177  0.26725197725753436  0.1141254225438606  1.0000
  H   H15       1.0  0.9886388034828405  0.6923946500482767  0.16560199012677534  1.0000
  H   H16       1.0  0.893704831177028  0.8527778612955907  0.02029913885966983  1.0000
  H   H17       1.0  0.9723171144279493  0.6633911183251984  0.6351498430173415  1.0000
  H   H18       1.0  0.09967081509056763  0.3667721588267927  0.5692078420080025  1.0000
  H   H19       1.0  0.9018156644313966  0.9642688809840025  0.6903617576079948  1.0000
  H   H20       1.0  0.8111805257168375  0.8945114257843121  0.7948846766642426  1.0000
  H   H21       1.0  0.8424693738227537  0.8114699177762583  0.6349662583291988  1.0000
  Zn  Zn1       1.0  0.9414834423465922  0.5803323997976884  0.40837798317447604  1.0000
  Zn  Zn2       1.0  0.12714788556790757  0.5782519707057183  0.40900079388537436  1.0000
  C   C26       1.0  0.03307801080043138  0.5715424723343658  0.6722868171185852  1.0000
  C   C27       1.0  0.03555535510839447  0.5870436943326214  0.145092105076015  1.0000
  C   C28       1.0  0.03596164496511012  0.8427774183797789  0.4024588362374808  1.0000
  C   C29       1.0  0.03267164658106547  0.3158070154375765  0.4149201658439172  1.0000
  O   O2        1.0  0.10577875434842854  0.5877680097340152  0.19909448188202084  1.0000
  O   O3        1.0  0.10376962318955463  0.5692380744040253  0.6187567257715305  1.0000
  O   O4        1.0  0.10609723757197353  0.7882637228048546  0.40086871621401543  1.0000
  O   O5        1.0  0.1034510771692343  0.3687423731840398  0.416982382999167  1.0000
  O   O6        1.0  0.9651801873871474  0.7898419980309432  0.4003963938405546  1.0000
  O   O7        1.0  0.9628525840092608  0.5708180831913221  0.618284323291143  1.0000
  O   O8        1.0  0.9648617228442197  0.5893479814470179  0.19862034436362586  1.0000
  O   O9        1.0  0.9625340451036827  0.370322333757765  0.4165083537010128  1.0000
