data_image0
_chemical_formula_structural       NC9NC3OH6C7F3H5C6OCH8Zn2C4O8
_chemical_formula_sum              "N2 C30 O10 H19 F3 Zn2"
_cell_length_a       15.78231758774541
_cell_length_b       9.27228830945605
_cell_length_c       9.273891588657152
_cell_angle_alpha    85.77446637080028
_cell_angle_beta     89.76748324947235
_cell_angle_gamma    89.05832516092083

_space_group_name_H-M_alt    "P 1"
_space_group_IT_number       1

loop_
  _space_group_symop_operation_xyz
  'x, y, z'

loop_
  _atom_site_type_symbol
  _atom_site_label
  _atom_site_symmetry_multiplicity
  _atom_site_fract_x
  _atom_site_fract_y
  _atom_site_fract_z
  _atom_site_occupancy
  N   N1        1.0  0.7939349627781367  0.5562400020938842  0.4046278852435561  1.0000
  C   C1        1.0  0.745849784125571  0.4652814793294391  0.4318303580277476  1.0000
  C   C2        1.0  0.6861501158011178  0.3523798466372934  0.4655956277518858  1.0000
  C   C3        1.0  0.7065097392473235  0.21055640303272627  0.5079221174496846  1.0000
  C   C4        1.0  0.6301166946935325  0.14182396069696313  0.5285179294092723  1.0000
  C   C5        1.0  0.5678200028594402  0.24678995593634  0.4972372963502507  1.0000
  C   C6        1.0  0.4748240900319903  0.22738427116471804  0.5031224510750196  1.0000
  C   C7        1.0  0.42049460334337674  0.346374722573207  0.46747877753353917  1.0000
  C   C8        1.0  0.3323660450932849  0.33046259836218983  0.472312410382441  1.0000
  C   C9        1.0  0.2773230885165402  0.45291505569256785  0.43562251363876525  1.0000
  N   N2        1.0  0.2330815285391669  0.5513510199135672  0.4061271413615464  1.0000
  C   C10       1.0  0.29788654857178265  0.19538294259652922  0.51284502240846  1.0000
  C   C11       1.0  0.3512838784796243  0.07663854444927409  0.54841983923736  1.0000
  C   C12       1.0  0.4392289199755342  0.0921135242845974  0.5437175824652043  1.0000
  O   O1        1.0  0.6036672122887501  0.3711873237207972  0.46005751835525177  1.0000
  H   H1        1.0  0.7692053995030133  0.1627279382783564  0.522139694354991  1.0000
  H   H2        1.0  0.621939942604903  0.028808715680409547  0.5622636952470403  1.0000
  H   H3        1.0  0.44658402046858114  0.451490598832617  0.4359319782479618  1.0000
  H   H4        1.0  0.2298362661123059  0.18190617892593863  0.5169365025679813  1.0000
  H   H5        1.0  0.3244606160931982  0.9722412991354797  0.5797514383445961  1.0000
  H   H6        1.0  0.47877722688702323  0.9980596815962702  0.5719044985744868  1.0000
  C   C13       1.0  0.015998342357949058  0.12996323669771748  0.4076073697169462  1.0000
  C   C14       1.0  0.056638508162962564  0.21049243311783616  0.2939028641482231  1.0000
  C   C15       1.0  0.08892722797357999  0.14344329802360734  0.17514457758868862  1.0000
  C   C16       1.0  0.08027954618751587  0.9942516813003631  0.16590194731065266  1.0000
  C   C17       1.0  0.04272426454837208  0.9120222566071763  0.2814516389550863  1.0000
  C   C18       1.0  0.011026278833988323  0.9776167412311546  0.40316021200053664  1.0000
  C   C19       1.0  0.11732764588606415  0.9211547006951438  0.03942423821728869  1.0000
  F   F1        1.0  0.117005316956867  0.014643274225102143  0.9159515267147467  1.0000
  F   F2        1.0  0.07075811569954471  0.801071948331219  0.011790035804671417  1.0000
  F   F3        1.0  0.19985382521104333  0.8779604904529282  0.07091876375548822  1.0000
  H   H7        1.0  0.8726730856036364  0.21647666732856075  0.6663744814319359  1.0000
  H   H8        1.0  0.06197846025266607  0.3267107211630551  0.2954125184907994  1.0000
  H   H9        1.0  0.1200872214633153  0.20880132172986587  0.08972122089075141  1.0000
  H   H10       1.0  0.04002748172504522  0.7955841989472796  0.2782014396652399  1.0000
  H   H11       1.0  0.9703997289269725  0.8515338517298637  0.7520860559099767  1.0000
  C   C20       1.0  0.014922895566809258  0.54995207402346  0.9821332403407341  1.0000
  C   C21       1.0  0.0839593435704451  0.6101407081302912  0.05062402128706456  1.0000
  C   C22       1.0  0.14812606027266373  0.6811601940875636  0.970658403912573  1.0000
  C   C23       1.0  0.1434851653120608  0.6923501274758961  0.8191437298329101  1.0000
  C   C24       1.0  0.07623408664020137  0.6312677638593229  0.7493214136869866  1.0000
  C   C25       1.0  0.012101685531300754  0.5576278323432682  0.8286342940853713  1.0000
  O   O2        1.0  0.21485879841855238  0.73959757320022  0.045783515202125535  1.0000
  C   C26       1.0  0.28419211763693086  0.814778189438004  0.9785468612700212  1.0000
  H   H12       1.0  0.81388894051042  0.4635500509941006  0.09292745142381365  1.0000
  H   H13       1.0  0.08721363535712157  0.6050729983088028  0.16759538163241894  1.0000
  H   H14       1.0  0.19197489193462802  0.7469199121747039  0.7540990922351516  1.0000
  H   H15       1.0  0.07550672675403414  0.638713883609626  0.6321988774280749  1.0000
  H   H16       1.0  0.8780755996688714  0.49372115366906044  0.5530759055690058  1.0000
  H   H17       1.0  0.2608732276867942  0.9126999807320102  0.9135612136853992  1.0000
  H   H18       1.0  0.3199441164952599  0.742754650035292  0.9086306217043889  1.0000
  H   H19       1.0  0.3273659101326678  0.8487936194716466  0.0633574982925007  1.0000
  Zn  Zn1       1.0  0.9206631668207628  0.5548253676262762  0.4050688747927125  1.0000
  Zn  Zn2       1.0  0.10635332583262103  0.5527539815541023  0.4056979958085938  1.0000
  C   C27       1.0  0.012666804395367715  0.5504272735004057  0.6686576467402403  1.0000
  C   C28       1.0  0.014351704835444679  0.5571538754143097  0.14210936264158014  1.0000
  C   C29       1.0  0.011980867450062327  0.8173401382187988  0.39825727994437554  1.0000
  C   C30       1.0  0.015037588332910135  0.2902392780656491  0.41250981516267293  1.0000
  O   O3        1.0  0.08462849255465388  0.5587784889398604  0.1960375918673325  1.0000
  O   O4        1.0  0.08332455855775533  0.5472294333031607  0.6152064966195676  1.0000
  O   O5        1.0  0.08276970085643742  0.762764971323443  0.3968562762125434  1.0000
  O   O6        1.0  0.08518328719210433  0.3432429609711096  0.41438770393723834  1.0000
  O   O7        1.0  0.9418331420943573  0.7643363889176336  0.3963791664417904  1.0000
  O   O8        1.0  0.9423879898765931  0.5488025842359836  0.6147293009013086  1.0000
  O   O9        1.0  0.9436919300001256  0.5603515738639278  0.19555866354069829  1.0000
  O   O10       1.0  0.9442467243345218  0.3448160365520103  0.4139088837254452  1.0000
