data_image0
_chemical_formula_structural       NC9NC3OH6C7NH5C6SCH8Zn2C4O8
_chemical_formula_sum              "N3 C30 O9 H19 S1 Zn2"
_cell_length_a       15.78231758774541
_cell_length_b       10.302819778424748
_cell_length_c       10.302812801239593
_cell_angle_alpha    85.56070422118889
_cell_angle_beta     90.08384720459999
_cell_angle_gamma    89.6314472413266

_space_group_name_H-M_alt    "P 1"
_space_group_IT_number       1

loop_
  _space_group_symop_operation_xyz
  'x, y, z'

loop_
  _atom_site_type_symbol
  _atom_site_label
  _atom_site_symmetry_multiplicity
  _atom_site_fract_x
  _atom_site_fract_y
  _atom_site_fract_z
  _atom_site_occupancy
  N   N1        1.0  0.7978583978599125  0.4128420288112582  0.5703703098293247  1.0000
  C   C1        1.0  0.7493273240383895  0.33080344837510145  0.5944422888812575  1.0000
  C   C2        1.0  0.6890741927205344  0.22897362877442795  0.6243218163610713  1.0000
  C   C3        1.0  0.708738283745504  0.10105896574628903  0.6617759333980646  1.0000
  C   C4        1.0  0.632008432695169  0.03906651270443273  0.6800021921545976  1.0000
  C   C5        1.0  0.5702266671389095  0.13373800304758743  0.6523231261081395  1.0000
  C   C6        1.0  0.47713589172808357  0.11623469140443254  0.6575322994772512  1.0000
  C   C7        1.0  0.4233895281142864  0.22355669198210126  0.6259896293283107  1.0000
  C   C8        1.0  0.33518321130535617  0.2092043960664236  0.6302681850293383  1.0000
  C   C9        1.0  0.2807403135707408  0.3196489859240348  0.59779952071857  1.0000
  N   N2        1.0  0.2369811187220956  0.40843218687968985  0.5716976165075367  1.0000
  C   C10       1.0  0.3000419727686561  0.08737036583111002  0.6661383889646948  1.0000
  C   C11       1.0  0.3528574013078246  0.9802702504729229  0.6976202012421926  1.0000
  C   C12       1.0  0.440878060505879  0.9942282657979458  0.6934579128382401  1.0000
  O   O1        1.0  0.6066837706696294  0.24593602515863489  0.6194224068178174  1.0000
  H   H1        1.0  0.7711991974393034  0.057921552498787054  0.6743559717706822  1.0000
  H   H2        1.0  0.6232774852802927  0.9371346585030471  0.7098636151967113  1.0000
  H   H3        1.0  0.44999388040006205  0.31836517045243884  0.5980715302621713  1.0000
  H   H4        1.0  0.231925824999898  0.07521471702851623  0.6697599813954536  1.0000
  H   H5        1.0  0.3255227256915754  0.8861099319647653  0.7253478611552746  1.0000
  H   H6        1.0  0.47996549106781605  0.9093974320850897  0.7184019724981241  1.0000
  C   C13       1.0  0.01742379500508706  0.029384044373706786  0.571039554952746  1.0000
  C   C14       1.0  0.967965931379583  0.019981722825396453  0.6845785063961376  1.0000
  C   C15       1.0  0.9433601568918089  0.8982013991788796  0.7410652084888127  1.0000
  C   C16       1.0  0.9679659997653871  0.7846807123279769  0.6845785108574995  1.0000
  C   C17       1.0  0.01742380897162832  0.7918800714157288  0.5710395935825296  1.0000
  C   C18       1.0  0.041894350202469344  0.914739162423116  0.5148633525081772  1.0000
  C   C19       1.0  0.8926586782525114  0.8896917491158898  0.857459318165398  1.0000
  N   N3        1.0  0.8519112801130984  0.8828528052620114  0.9510020026398696  1.0000
  H   H7        1.0  0.036157227045935825  0.3602678457086459  0.5280332075233349  1.0000
  H   H8        1.0  0.9484603013138709  0.10713222419734847  0.7293567939656505  1.0000
  H   H9        1.0  0.9484604070652215  0.6909826190110068  0.7293567634426819  1.0000
  H   H10       1.0  0.0800345069724302  0.9211404564045044  0.42730620129199504  1.0000
  H   H11       1.0  0.03615730477783763  0.467284764341103  0.5280333064319358  1.0000
  C   C20       1.0  0.017423825889613775  0.41063208853027966  0.18979112019535016  1.0000
  C   C21       1.0  0.9888483567248958  0.5403900376010777  0.17850747661967503  1.0000
  C   C22       1.0  0.9744116592044574  0.6047642005544729  0.055916846299461476  1.0000
  C   C23       1.0  0.9888482803369514  0.5403899020824074  0.9433563066995303  1.0000
  C   C24       1.0  0.017423770929447135  0.41063208033293286  0.9522880236587659  1.0000
  C   C25       1.0  0.03154576284388244  0.3463761245028456  0.07604485459169186  1.0000
  S   S1        1.0  0.9380762928241517  0.7706435478753224  0.04299570366787253  1.0000
  C   C26       1.0  0.8266211862742785  0.7264023679839706  0.04617095419699724  1.0000
  H   H12       1.0  0.028161052992779823  0.3617162795186033  0.521357648830697  1.0000
  H   H13       1.0  0.9774970233622634  0.5919302760118743  0.2645922206141331  1.0000
  H   H14       1.0  0.9774968537208014  0.5919300906955225  0.8492419071192683  1.0000
  H   H15       1.0  0.053571923763497065  0.24627961443243374  0.08384196367436747  1.0000
  H   H16       1.0  0.028159475301525516  0.3617156213275097  0.6283420585478923  1.0000
  H   H17       1.0  0.8115961387867364  0.6687969560521367  0.9624792137796652  1.0000
  H   H18       1.0  0.8115965016886965  0.6687982644878867  0.1387139069101444  1.0000
  H   H19       1.0  0.7874053489708632  0.8164080481735216  0.03911592199398828  1.0000
  Zn  Zn1       1.0  0.9245797258822331  0.4115659757648267  0.5707608329647447  1.0000
  Zn  Zn2       1.0  0.11025976220628064  0.4096976436763953  0.5713177063373875  1.0000
  C   C27       1.0  0.0174218931114547  0.40545998911384507  0.8081597892116354  1.0000
  C   C28       1.0  0.017419622597297346  0.41580524804689567  0.33391888359783706  1.0000
  C   C29       1.0  0.017419442913203742  0.6477521731489015  0.565866045840502  1.0000
  C   C30       1.0  0.017422009435902774  0.17351150482092503  0.5762126959956058  1.0000
  O   O2        1.0  0.08788281803925058  0.4168267213276575  0.38250080816146026  1.0000
  O   O3        1.0  0.0878855488958803  0.4030195155834433  0.7600001449246538  1.0000
  O   O4        1.0  0.0878826204331209  0.598673527952569  0.5643462300352424  1.0000
  O   O5        1.0  0.0878856831419983  0.221172718883468  0.5781546255169363  1.0000
  O   O6        1.0  0.9469537415830322  0.6000909011967381  0.5639239135883334  1.0000
  O   O7        1.0  0.9469566700419536  0.40443844865750966  0.759577759254247  1.0000
  O   O8        1.0  0.9469539392417816  0.4182456091589737  0.3820768615836987  1.0000
  O   O9        1.0  0.9469568043410573  0.2225915974288315  0.5777307762762476  1.0000
