data_image0
_chemical_formula_structural       NC9NC3OH6C7F3H5C7OH6Zn2C4O8
_chemical_formula_sum              "N2 C30 O10 H17 F3 Zn2"
_cell_length_a       15.78231758774541
_cell_length_b       9.27228830945605
_cell_length_c       9.274081674992354
_cell_angle_alpha    85.76911069333654
_cell_angle_beta     89.75780300142802
_cell_angle_gamma    89.05832516092083

_space_group_name_H-M_alt    "P 1"
_space_group_IT_number       1

loop_
  _space_group_symop_operation_xyz
  'x, y, z'

loop_
  _atom_site_type_symbol
  _atom_site_label
  _atom_site_symmetry_multiplicity
  _atom_site_fract_x
  _atom_site_fract_y
  _atom_site_fract_z
  _atom_site_occupancy
  N   N1        1.0  0.7940919746425891  0.5563852275671326  0.4046487726093344  1.0000
  C   C1        1.0  0.7460041188020935  0.46542422858290977  0.431850889245895  1.0000
  C   C2        1.0  0.6863011273984011  0.35251952226472394  0.4656157168991628  1.0000
  C   C3        1.0  0.7066565851951  0.21069222571297286  0.5079416524385527  1.0000
  C   C4        1.0  0.6302615136616433  0.14195790855658896  0.5285371947480357  1.0000
  C   C5        1.0  0.5679679003761056  0.24692675124747732  0.49725697122984713  1.0000
  C   C6        1.0  0.4749714083489144  0.2275205307548327  0.5031420489033889  1.0000
  C   C7        1.0  0.4206454296065579  0.34651422677898935  0.4674988420257291  1.0000
  C   C8        1.0  0.3325163956444372  0.3306016625661621  0.47233241159042505  1.0000
  C   C9        1.0  0.2774770499801817  0.45305745974908507  0.4356429952082188  1.0000
  N   N2        1.0  0.23323839285121054  0.5514961089107062  0.4061480090983549  1.0000
  C   C10       1.0  0.2980329100216297  0.1955183171485957  0.5128644929443296  1.0000
  C   C11       1.0  0.3514267387598906  0.07677068065364612  0.5484388440109136  1.0000
  C   C12       1.0  0.4393722430381798  0.092246088531718  0.5437366488029258  1.0000
  O   O1        1.0  0.6038187689305866  0.37132750347798593  0.46007768001007476  1.0000
  H   H1        1.0  0.7693508461983913  0.1628624667437204  0.5221590432006225  1.0000
  H   H2        1.0  0.6220814404132905  0.028939591689418842  0.5622825187702878  1.0000
  H   H3        1.0  0.44673795147561973  0.4516329747188135  0.4359524557657586  1.0000
  H   H4        1.0  0.22998222489062423  0.18204118103377298  0.516955919536259  1.0000
  H   H5        1.0  0.3246003928089804  0.9723705832489411  0.5797700329100455  1.0000
  H   H6        1.0  0.4789177758757018  0.9981896800105087  0.5719231958757798  1.0000
  C   C13       1.0  0.016155060990241  0.13010819095082948  0.40762821807390526  1.0000
  C   C14       1.0  0.05680641726063285  0.2106477378029754  0.293925201178312  1.0000
  C   C15       1.0  0.08910682491499466  0.14360941318249631  0.1751684694583957  1.0000
  C   C16       1.0  0.08046005276161106  0.9944186378086426  0.16592596018924377  1.0000
  C   C17       1.0  0.04289339905926348  0.9121786947175861  0.2814741390025004  1.0000
  C   C18       1.0  0.011183435142555043  0.977762100305548  0.40318111858178685  1.0000
  C   C19       1.0  0.11752060002692577  0.921333170370156  0.03944990700182682  1.0000
  F   F1        1.0  0.1172104229214086  0.014832983524271981  0.9159788120623835  1.0000
  F   F2        1.0  0.07095378951790554  0.8012529335260189  0.011816066389249258  1.0000
  F   F3        1.0  0.20004367975267767  0.8781360932059646  0.07094402019881296  1.0000
  H   H7        1.0  0.8728043371324897  0.21659806621429967  0.6663919418875626  1.0000
  H   H8        1.0  0.06214622077456422  0.32686588842554243  0.29543483575577967  1.0000
  H   H9        1.0  0.1202752255220283  0.20897521290996535  0.08974623116341962  1.0000
  H   H10       1.0  0.04019693611105901  0.7957409329207835  0.27822398226579903  1.0000
  H   H11       1.0  0.9705225449729754  0.8516474483581535  0.7521023941891587  1.0000
  C   C20       1.0  0.015121488120371618  0.5501357588531075  0.9821596592060953  1.0000
  C   C21       1.0  0.08357198348337369  0.6121829143668958  0.05059113527258274  1.0000
  C   C22       1.0  0.14716140605291583  0.6849310347573891  0.9699413389069607  1.0000
  C   C23       1.0  0.1422808495862431  0.6960235996791162  0.8187442817217887  1.0000
  C   C24       1.0  0.07561083525461343  0.6331337388387901  0.7491203577795331  1.0000
  C   C25       1.0  0.01221699158344336  0.557734501685077  0.8286496102816412  1.0000
  C   C26       1.0  0.21757085534078935  0.749829308073984  0.04528333689618336  1.0000
  O   O2        1.0  0.2754921111564017  0.8164231461204148  0.9757899124835596  1.0000
  H   H12       1.0  0.8149008619486381  0.4586151729530221  0.0933349132703889  1.0000
  H   H13       1.0  0.08640328435081956  0.6067942899576031  0.16766813811941716  1.0000
  H   H14       1.0  0.1904658528265628  0.7521685246324985  0.754004661607135  1.0000
  H   H15       1.0  0.07478112944353077  0.6405995934304969  0.6320047924295666  1.0000
  H   H16       1.0  0.8787879668914235  0.49017145132301243  0.5534706375424454  1.0000
  H   H17       1.0  0.22009499958343048  0.7406263221675324  0.1622470977739856  1.0000
  Zn  Zn1       1.0  0.9208201352843116  0.5549705529565916  0.405089756384847  1.0000
  Zn  Zn2       1.0  0.10651023237991675  0.5528991096160245  0.4057188691639788  1.0000
  C   C27       1.0  0.012797831221758926  0.550548464551396  0.6686750773035879  1.0000
  C   C28       1.0  0.014534553006239292  0.5573229977429242  0.14213368702393514  1.0000
  C   C29       1.0  0.012138506290883866  0.8174859436032544  0.39827825071712963  1.0000
  C   C30       1.0  0.015193824480838058  0.2903837860529943  0.412530599334499  1.0000
  O   O3        1.0  0.08480603326661917  0.5589427022240339  0.1960612101958219  1.0000
  O   O4        1.0  0.0834608458902446  0.5473554899704545  0.6152246269906361  1.0000
  O   O5        1.0  0.08292747757995489  0.7629109042401703  0.39687726532790024  1.0000
  O   O6        1.0  0.08533933852370335  0.34338729801571155  0.4144084635228573  1.0000
  O   O7        1.0  0.9419909657736247  0.7644823652652899  0.3964001618036941  1.0000
  O   O8        1.0  0.942524324173291  0.5489286843420298  0.6147474375200488  1.0000
  O   O9        1.0  0.943869517846818  0.5605158307445721  0.19558228813954326  1.0000
  O   O10       1.0  0.9444028227902077  0.344960417183241  0.4139296495800042  1.0000
