data_image0
_chemical_formula_structural       NC9NC3OH6C9H8C6SCH8Zn2C4O8
_chemical_formula_sum              "N2 C32 O9 H22 S1 Zn2"
_cell_length_a       15.78231758774541
_cell_length_b       9.275152443626249
_cell_length_c       10.302812801239593
_cell_angle_alpha    85.36323255816029
_cell_angle_beta     90.08384720459999
_cell_angle_gamma    90.20707041648352

_space_group_name_H-M_alt    "P 1"
_space_group_IT_number       1

loop_
  _space_group_symop_operation_xyz
  'x, y, z'

loop_
  _atom_site_type_symbol
  _atom_site_label
  _atom_site_symmetry_multiplicity
  _atom_site_fract_x
  _atom_site_fract_y
  _atom_site_fract_z
  _atom_site_occupancy
  N   N1        1.0  0.8071206131635286  0.5697871316587784  0.5655074467548116  1.0000
  C   C1        1.0  0.7580517163018448  0.47863532187252145  0.5898617945184292  1.0000
  C   C2        1.0  0.6971310158614433  0.3654937694777587  0.6200918102053614  1.0000
  C   C3        1.0  0.7159565324914731  0.22336974720402258  0.6579861969107563  1.0000
  C   C4        1.0  0.6388202754625757  0.15449088243317077  0.6764258275833619  1.0000
  C   C5        1.0  0.5776591509325533  0.25967892486469757  0.6484209115938742  1.0000
  C   C6        1.0  0.484453628481606  0.24023126347118962  0.6536903296372913  1.0000
  C   C7        1.0  0.43141083926317253  0.3594750940022291  0.6217782677353811  1.0000
  C   C8        1.0  0.3431104326323363  0.34352847790591623  0.626106222625008  1.0000
  C   C9        1.0  0.2893915801550959  0.4662417695438237  0.5932574189165967  1.0000
  N   N2        1.0  0.2462144242788384  0.5648874238530517  0.5668499316745093  1.0000
  C   C10       1.0  0.3071704827065815  0.20816055356518914  0.662395767289738  1.0000
  C   C11       1.0  0.3592837914706721  0.08916325630194843  0.6942462076131393  1.0000
  C   C12       1.0  0.4473959556922996  0.10467179327487064  0.6900358770955368  1.0000
  O   O1        1.0  0.6148517947545731  0.3843404282145655  0.6151340177648339  1.0000
  H   H1        1.0  0.7781346488158627  0.17544042826526574  0.6707147100100126  1.0000
  H   H2        1.0  0.6294210900135403  0.041235960956858  0.7066380900256384  1.0000
  H   H3        1.0  0.45863673063279004  0.4648153418430343  0.5935338472265732  1.0000
  H   H4        1.0  0.2389746457481838  0.19465459842076993  0.666059198266139  1.0000
  H   H5        1.0  0.3313318259343222  0.984543169064479  0.7222979580661548  1.0000
  H   H6        1.0  0.4859272579467463  0.010417553653777611  0.7152719161277994  1.0000
  C   C13       1.0  0.02417216209402362  0.14373284021874433  0.5674965164836194  1.0000
  C   C14       1.0  0.993607654554528  0.22681329770172232  0.45710603620544354  1.0000
  C   C15       1.0  0.9709188770534565  0.16162512701515852  0.3446745992352682  1.0000
  C   C16       1.0  0.9784383507615422  0.012199280802008827  0.34040781753092264  1.0000
  C   C17       1.0  0.007346039741755739  0.9274491643110815  0.44986107949112886  1.0000
  C   C18       1.0  0.029170900664692745  0.990930579798013  0.5648720983471023  1.0000
  C   C19       1.0  0.9554834206752921  0.9453059168775494  0.2239796467516495  1.0000
  C   C20       1.0  0.9362640307598608  0.8892650241997607  0.12648931376284422  1.0000
  C   C21       1.0  0.9129451000942642  0.8212573091629914  0.008201893867149535  1.0000
  H   H7        1.0  0.14591719876077103  0.22402578134297912  0.8271545656740453  1.0000
  H   H8        1.0  0.9891445115971146  0.3433805862370112  0.456684006955127  1.0000
  H   H9        1.0  0.9482659612157645  0.22811766665324806  0.2605207932842606  1.0000
  H   H10       1.0  0.010913319954858558  0.8110993284038975  0.44625020683044614  1.0000
  H   H11       1.0  0.1084221142728754  0.6947468460433083  0.7424572007958488  1.0000
  H   H12       1.0  0.9284340505591616  0.7043626446320722  0.020378173458446502  1.0000
  H   H13       1.0  0.8439850167003766  0.8346093743514784  0.9902174166003288  1.0000
  H   H14       1.0  0.9487258340508338  0.8732065783035758  0.9242741479420178  1.0000
  C   C22       1.0  0.026671553414502336  0.5673317008717045  0.1849358635175682  1.0000
  C   C23       1.0  0.9989467427361125  0.7115037700259303  0.17320560586452793  1.0000
  C   C24       1.0  0.9849320650488229  0.7830289161886408  0.05039340601736386  1.0000
  C   C25       1.0  0.9989466654597441  0.7115036194532123  0.938054436410825  1.0000
  C   C26       1.0  0.02667149840059624  0.5673316917637581  0.9474327670091984  1.0000
  C   C27       1.0  0.04037224541623785  0.49593788372467085  0.07141076061180196  1.0000
  S   S1        1.0  0.9496841594022566  0.9673349175123123  0.03690132301419724  1.0000
  C   C28       1.0  0.8379390194834127  0.9181792203666952  0.04022884732600862  1.0000
  H   H15       1.0  0.037088101527677164  0.5129820949318136  0.5166707555485053  1.0000
  H   H16       1.0  0.9879332934222456  0.7687693392615571  0.25911295343595464  1.0000
  H   H17       1.0  0.9879331225658988  0.768769133359398  0.8437626405789307  1.0000
  H   H18       1.0  0.06174220032802813  0.3847221849924549  0.07955239202095332  1.0000
  H   H19       1.0  0.03708651952149755  0.5129813636257738  0.6236551675311293  1.0000
  H   H20       1.0  0.8225363262880803  0.8541747297580882  0.9567353790614468  1.0000
  H   H21       1.0  0.822536697767796  0.8541761835410031  0.13297006768841912  1.0000
  H   H22       1.0  0.7993132354000061  0.018183152622753163  0.0328640244388585  1.0000
  Zn  Zn1       1.0  0.9338335757226099  0.5683693286696587  0.5659023619391055  1.0000
  Zn  Zn2       1.0  0.11950136376007703  0.5662934535114486  0.5664656659267342  1.0000
  C   C29       1.0  0.026635713732818367  0.5615850604533061  0.8033223343905065  1.0000
  C   C30       1.0  0.026701263975445144  0.5730795191511722  0.3290458214146421  1.0000
  C   C31       1.0  0.028221666433938086  0.8307921939073906  0.5601946451917716  1.0000
  C   C32       1.0  0.02511523769304036  0.30387065330395213  0.5721735850065939  1.0000
  O   O2        1.0  0.09717115592363168  0.5742144624631449  0.37762423016786517  1.0000
  O   O3        1.0  0.09708337042405435  0.5588734877048636  0.7551710899729889  1.0000
  O   O4        1.0  0.09836309745329208  0.7762616631775874  0.5588437532482076  1.0000
  O   O5        1.0  0.09589136559944733  0.3568262980178656  0.5739514693245509  1.0000
  O   O6        1.0  0.9574435105239457  0.777836484873206  0.5584165583422271  1.0000
  O   O7        1.0  0.9561637937166985  0.5604500425035832  0.7547438204747299  1.0000
  O   O8        1.0  0.956251578976134  0.5757909669933376  0.37719539991797246  1.0000
  O   O9        1.0  0.9549717885876017  0.358402792230579  0.5735227364436923  1.0000
