data_image0
_chemical_formula_structural       NC9NC3OH6C7H8C6SCH8Zn2C4O8
_chemical_formula_sum              "N2 C30 O9 H22 S1 Zn2"
_cell_length_a       15.78231758774541
_cell_length_b       9.274341958901593
_cell_length_c       10.302812801239593
_cell_angle_alpha    85.528480130832
_cell_angle_beta     90.08384720459999
_cell_angle_gamma    89.0114341261544

_space_group_name_H-M_alt    "P 1"
_space_group_IT_number       1

loop_
  _space_group_symop_operation_xyz
  'x, y, z'

loop_
  _atom_site_type_symbol
  _atom_site_label
  _atom_site_symmetry_multiplicity
  _atom_site_fract_x
  _atom_site_fract_y
  _atom_site_fract_z
  _atom_site_occupancy
  N   N1        1.0  0.7878749685682561  0.5697922487713625  0.5695365546958722  1.0000
  C   C1        1.0  0.7399235960511044  0.4786401418530528  0.5936569468656099  1.0000
  C   C2        1.0  0.680390014961112  0.3654982206451882  0.6235965667924903  1.0000
  C   C3        1.0  0.700957977025919  0.2233737350827627  0.6611261696267412  1.0000
  C   C4        1.0  0.6246661772643612  0.15449464578407612  0.6793890117555867  1.0000
  C   C5        1.0  0.5622154436915062  0.2596830311022553  0.651654077579886  1.0000
  C   C6        1.0  0.4692483502427088  0.24023530631424594  0.6568735801122283  1.0000
  C   C7        1.0  0.41474362753259575  0.3594795255502854  0.6252675764361921  1.0000
  C   C8        1.0  0.3266387269673255  0.34353285747200046  0.6295546018034335  1.0000
  C   C9        1.0  0.2714154052850895  0.46624654912448094  0.5970207612437441  1.0000
  N   N2        1.0  0.22702885027093914  0.5648925249938164  0.5708664637374574  1.0000
  C   C10       1.0  0.2923583924817281  0.20816449186576969  0.6654967031951697  1.0000
  C   C11       1.0  0.3459306122310976  0.08916680670116706  0.6970417180594761  1.0000
  C   C12       1.0  0.4338526412523824  0.10467539422803207  0.6928711926646267  1.0000
  O   O1        1.0  0.5978797331654759  0.38434494081737847  0.6186871472942856  1.0000
  H   H1        1.0  0.763723708460272  0.17544425990643941  0.673731664518209  1.0000
  H   H2        1.0  0.6166555010746009  0.04123935512510646  0.7093105874580614  1.0000
  H   H3        1.0  0.44067804381579206  0.464820116773895  0.5972935284005236  1.0000
  H   H4        1.0  0.22432813900110724  0.1946584926953221  0.6691254689930721  1.0000
  H   H5        1.0  0.31926129258723324  0.9845463784284355  0.7248249444458956  1.0000
  H   H6        1.0  0.4735395037485725  0.010420847361742869  0.7178653132242014  1.0000
  C   C13       1.0  0.010149957865905224  0.1437365685011287  0.5704320884322231  1.0000
  C   C14       1.0  0.02016663480320946  0.22696968627019887  0.45158878055622975  1.0000
  C   C15       1.0  0.021752929040447455  0.16199778350744398  0.33398021188372073  1.0000
  C   C16       1.0  0.012430660803804283  0.01247152175755284  0.33238404584170267  1.0000
  C   C17       1.0  0.005053641744955151  0.9276010754218572  0.4502746865524021  1.0000
  C   C18       1.0  0.004761996620395781  0.9909370188889411  0.5699822008660889  1.0000
  C   C19       1.0  0.016010820139502613  0.942440132391056  0.2060044701025734  1.0000
  H   H7        1.0  0.9396410230745526  0.22268097683060373  0.8710110970378564  1.0000
  H   H8        1.0  0.02496908724888902  0.3435238387919741  0.449371779656188  1.0000
  H   H9        1.0  0.02935848827127452  0.22878920385569756  0.24386883354273103  1.0000
  H   H10       1.0  0.001471072907562876  0.8111371081219937  0.44860636618204697  1.0000
  H   H11       1.0  0.9606616323734665  0.6938352818452506  0.774059198953355  1.0000
  H   H12       1.0  0.08264912078224973  0.9121496608672713  0.18493952331823404  1.0000
  H   H13       1.0  0.9913006312038549  0.017533099863191737  0.12490899416065115  1.0000
  H   H14       1.0  0.9769162341018623  0.8437043015385303  0.2110791495683546  1.0000
  C   C20       1.0  0.007456012485709929  0.5673368099801999  0.188958669205614  1.0000
  C   C21       1.0  0.9779636472468649  0.7115093490992346  0.17759845206124725  1.0000
  C   C22       1.0  0.9630720687907317  0.7830347284159938  0.054969832859240286  1.0000
  C   C23       1.0  0.977963571816523  0.7115091985260258  0.942447282221075  1.0000
  C   C24       1.0  0.007455957583467621  0.5673368008722237  0.9514555726738672  1.0000
  C   C25       1.0  0.0220319951580088  0.4959427601072173  0.07525032273146248  1.0000
  S   S1        1.0  0.9255645651854899  0.9673413305310339  0.041950800474557015  1.0000
  C   C26       1.0  0.8144220758158943  0.9181854731501646  0.04515215888417501  1.0000
  H   H15       1.0  0.0185388886498139  0.5129870268742163  0.5205540643426918  1.0000
  H   H16       1.0  0.9662481200710842  0.7687751050062637  0.2636527808093587  1.0000
  H   H17       1.0  0.9662479517391049  0.7687748991034333  0.8483024674238542  1.0000
  H   H18       1.0  0.04476545838761381  0.3847266988396989  0.08310650138979514  1.0000
  H   H19       1.0  0.018537315609472138  0.5129862955657927  0.6275384744483032  1.0000
  H   H20       1.0  0.7998040798918749  0.8541807739029608  0.9614944129311458  1.0000
  H   H21       1.0  0.7998044335481616  0.8541822276906148  0.13772910528948268  1.0000
  H   H22       1.0  0.7745702400599301  0.018189731393976505  0.03804401196885787  1.0000
  Zn  Zn1       1.0  0.9146053134410822  0.5683744411605605  0.5699278308636602  1.0000
  Zn  Zn2       1.0  0.10029855177987557  0.5662985592355179  0.5704858067880658  1.0000
  C   C27       1.0  0.007490626814559365  0.5615901508291941  0.8073303904134053  1.0000
  C   C28       1.0  0.007415254595501297  0.5730846469961148  0.33308337979100267  1.0000
  C   C29       1.0  0.005776090736990369  0.8307981618310571  0.5648936640702797  1.0000
  C   C30       1.0  0.009129738330985182  0.3038749035954682  0.5755201760808826  1.0000
  O   O2        1.0  0.07787123209938063  0.5742195940077177  0.3816647015564538  1.0000
  O   O3        1.0  0.07797152748159197  0.5588785692417042  0.7591721863138559  1.0000
  O   O4        1.0  0.07658606795146361  0.7762674533453922  0.5634028108606544  1.0000
  O   O5        1.0  0.07925662819936541  0.3568307209315107  0.577433979469864  1.0000
  O   O6        1.0  0.9356471736535936  0.7778422801745344  0.5629796579846227  1.0000
  O   O7        1.0  0.9370326221578081  0.5604551291795967  0.7587489632938302  1.0000
  O   O8        1.0  0.936932327151749  0.5757961036769201  0.38123991765577214  1.0000
  O   O9        1.0  0.9383177233138786  0.3584072202831998  0.5770092929117348  1.0000
