data_image0
_chemical_formula_structural       NC9NC3OH6C6ClH5C6ClH5Zn2C4O8
_chemical_formula_sum              "N2 C28 O9 H16 Cl2 Zn2"
_cell_length_a       15.78231758774541
_cell_length_b       10.30297070629231
_cell_length_c       10.302974078461048
_cell_angle_alpha    85.56070090075097
_cell_angle_beta     90.08385130592438
_cell_angle_gamma    89.63144908567993

_space_group_name_H-M_alt    "P 1"
_space_group_IT_number       1

loop_
  _space_group_symop_operation_xyz
  'x, y, z'

loop_
  _atom_site_type_symbol
  _atom_site_label
  _atom_site_symmetry_multiplicity
  _atom_site_fract_x
  _atom_site_fract_y
  _atom_site_fract_z
  _atom_site_occupancy
  N   N1        1.0  0.7978583605186412  0.4128213751156351  0.5703926419981029  1.0000
  C   C1        1.0  0.7493272861040805  0.3307839956102052  0.5944642468059074  1.0000
  C   C2        1.0  0.689074154050137  0.22895566665646694  0.6243433097523075  1.0000
  C   C3        1.0  0.7087382441467427  0.10104287612330909  0.6617968445029376  1.0000
  C   C4        1.0  0.6320083926499775  0.03905133056373988  0.6800228198942602  1.0000
  C   C5        1.0  0.5702266277827469  0.13372143504515122  0.6523441841604731  1.0000
  C   C6        1.0  0.47713585224882793  0.11621837962408965  0.6575532765355538  1.0000
  C   C7        1.0  0.42338948940840243  0.22353880915837343  0.6260110967820876  1.0000
  C   C8        1.0  0.3351831724988742  0.20918672333846988  0.6302895859579132  1.0000
  C   C9        1.0  0.280740275559746  0.31962969644260353  0.5978214264399557  1.0000
  N   N2        1.0  0.2369810813505096  0.40841159773708857  0.5717199280373595  1.0000
  C   C10       1.0  0.3000419330871484  0.08735447658053608  0.6661592322109173  1.0000
  C   C11       1.0  0.3528573608547481  0.9802559290175245  0.6976405550386475  1.0000
  C   C12       1.0  0.4408780201505775  0.9942137400184771  0.6934783313522432  1.0000
  O   O1        1.0  0.6066837321254915  0.24591781473260932  0.6194439763714676  1.0000
  H   H1        1.0  0.7711991575250831  0.05790609434970895  0.6743766873033095  1.0000
  H   H2        1.0  0.6232774444960247  0.9371209685042758  0.7098837786894396  1.0000
  H   H3        1.0  0.4499938423748822  0.3183458997672042  0.5980934317655786  1.0000
  H   H4        1.0  0.2319257852330895  0.07519900571820415  0.6697807683314971  1.0000
  H   H5        1.0  0.3255226845624684  0.8860969888827201  0.72536778386286  1.0000
  H   H6        1.0  0.4799654501017641  0.9093841481095791  0.7184220032043627  1.0000
  C   C13       1.0  0.017423749652080822  0.02936900709311563  0.5710618883843979  1.0000
  C   C14       1.0  0.10491763161162226  0.02534735333367144  0.5963322821530872  1.0000
  C   C15       1.0  0.14832976059139846  0.9063950721677612  0.6088706863140507  1.0000
  C   C16       1.0  0.10491763093516804  0.790239384670456  0.5963322210938433  1.0000
  C   C17       1.0  0.017423758694753433  0.791853948815118  0.5710619627298499  1.0000
  C   C18       1.0  0.9741033108830264  0.9120068414882863  0.5585499191022034  1.0000
  Cl  Cl1       1.0  0.2576304651023136  0.9028745853805951  0.6404393394336896  1.0000
  H   H7        1.0  0.9844663367183975  0.3581870119508186  0.5615422468024653  1.0000
  H   H8        1.0  0.13971607481821158  0.1142731084046078  0.6063828204391957  1.0000
  H   H9        1.0  0.13971604130979487  0.6990719159128423  0.6063827270629458  1.0000
  H   H10       1.0  0.9066253739595984  0.914180135708298  0.5390605917336151  1.0000
  H   H11       1.0  0.9844663325862454  0.46515904531654095  0.5615424919032228  1.0000
  C   C19       1.0  0.017423770672468475  0.4106114778312746  0.18981940895134874  1.0000
  C   C20       1.0  0.0026848128757261946  0.2759169728051638  0.1990085237916155  1.0000
  C   C21       1.0  0.9953717874762037  0.20908522764612592  0.08661112088155498  1.0000
  C   C22       1.0  0.0026848507719952064  0.275917045745357  0.9639006249350555  1.0000
  C   C23       1.0  0.01742376851116534  0.4106114108374541  0.9523044280182336  1.0000
  C   C24       1.0  0.024721416789634354  0.47730211215309204  0.06591626701867814  1.0000
  Cl  Cl2       1.0  0.9769593304732207  0.04081979208425279  0.09959405109832398  1.0000
  H   H12       1.0  0.02297617025460852  0.4613485681434273  0.5136609685602007  1.0000
  H   H13       1.0  0.9968227967003663  0.22234582264962666  0.29318847909852574  1.0000
  H   H14       1.0  0.9968228559104256  0.22234580352972544  0.8779875132035837  1.0000
  H   H15       1.0  0.03608850541634423  0.581182557622046  0.057901020700916295  1.0000
  H   H16       1.0  0.02297600902148944  0.4613485582737391  0.6206333375914883  1.0000
  Zn  Zn1       1.0  0.924579688532492  0.4115453407483962  0.570783159060428  1.0000
  Zn  Zn2       1.0  0.11025972484343938  0.40967703600950633  0.5713400237745243  1.0000
  C   C25       1.0  0.017421866755397142  0.4054394369009957  0.8081783999165706  1.0000
  C   C26       1.0  0.017419574240812974  0.41578455755272725  0.3339449164235828  1.0000
  C   C27       1.0  0.01741941028818994  0.6477280788963571  0.5658884413159773  1.0000
  C   C28       1.0  0.01742196734834467  0.17349435638928679  0.5762349440497792  1.0000
  O   O2        1.0  0.08788277198017647  0.41680601451547106  0.38252608059070514  1.0000
  O   O3        1.0  0.08788552023243179  0.4029990004606365  0.7600195094603328  1.0000
  O   O4        1.0  0.08788258670747418  0.5986501525877355  0.5643686507999133  1.0000
  O   O5        1.0  0.0878856421451173  0.22115487231316555  0.5781768417187154  1.0000
  O   O6        1.0  0.9469537078673306  0.600067505083711  0.563946340919377  1.0000
  O   O7        1.0  0.9469566413884793  0.4044179127636649  0.7595971303573346  1.0000
  O   O8        1.0  0.9469538931926074  0.41822488157645554  0.38210214060478376  1.0000
  O   O9        1.0  0.946956763354081  0.2225737300883308  0.5777529990683439  1.0000
