data_image0
_chemical_formula_structural       NC9NC3OH6C7H8C6NH7Zn2C4O8
_chemical_formula_sum              "N3 C29 O9 H21 Zn2"
_cell_length_a       15.78231758774541
_cell_length_b       9.274341958901593
_cell_length_c       9.274774538082514
_cell_angle_alpha    85.03522541298749
_cell_angle_beta     90.43038941912484
_cell_angle_gamma    89.0114341261544

_space_group_name_H-M_alt    "P 1"
_space_group_IT_number       1

loop_
  _space_group_symop_operation_xyz
  'x, y, z'

loop_
  _atom_site_type_symbol
  _atom_site_label
  _atom_site_symmetry_multiplicity
  _atom_site_fract_x
  _atom_site_fract_y
  _atom_site_fract_z
  _atom_site_occupancy
  N   N1        1.0  0.7820807858720226  0.5836991694905189  0.4097924373231583  1.0000
  C   C1        1.0  0.7342271145295461  0.4923125648765705  0.4366064255931579  1.0000
  C   C2        1.0  0.6748148057644647  0.37887957162345254  0.46988949213197007  1.0000
  C   C3        1.0  0.6955347838601968  0.23639022444016522  0.5116101375963467  1.0000
  C   C4        1.0  0.6193169588962437  0.16733358436349333  0.5319124457501134  1.0000
  C   C5        1.0  0.5567538832176119  0.27279160784124956  0.5010802687928286  1.0000
  C   C6        1.0  0.4638079316940801  0.2532931392134381  0.5068826487331126  1.0000
  C   C7        1.0  0.4091751868662415  0.37284463102523935  0.4717471084041256  1.0000
  C   C8        1.0  0.3210876511684784  0.3568562846208858  0.4765128786744206  1.0000
  C   C9        1.0  0.2657325491065116  0.4798862692501902  0.440345887150956  1.0000
  N   N2        1.0  0.22124005445542713  0.5787865163790107  0.411270861272085  1.0000
  C   C10       1.0  0.28695290243876587  0.22113849103299188  0.5164687416776064  1.0000
  C   C11       1.0  0.3406528972668197  0.10183412622394084  0.5515364823924405  1.0000
  C   C12       1.0  0.42855803331110737  0.1173832594677997  0.5469002219937591  1.0000
  O   O1        1.0  0.5922846380545129  0.3977740210179188  0.4644318231226523  1.0000
  H   H1        1.0  0.758351574649207  0.18833819903813898  0.5256233256812992  1.0000
  H   H2        1.0  0.6114274819421215  0.0537873970846543  0.5651754530121871  1.0000
  H   H3        1.0  0.43499629249784166  0.47845718506586676  0.4406491150292946  1.0000
  H   H4        1.0  0.21893734750361554  0.2075972131153485  0.5205027425700801  1.0000
  H   H5        1.0  0.3140961153393874  0.9969435902962764  0.5824223444955818  1.0000
  H   H6        1.0  0.4683461360740999  0.022885720545888333  0.5746855105076099  1.0000
  C   C13       1.0  0.004359402585734751  0.15763478286940713  0.41078797798157396  1.0000
  C   C14       1.0  0.013894697184805516  0.2420232915476681  0.2786730836245517  1.0000
  C   C15       1.0  0.015004610473079882  0.1781947755983202  0.14793081547881792  1.0000
  C   C16       1.0  0.005675876864887908  0.028684031724593106  0.14615640081646708  1.0000
  C   C17       1.0  0.9987763813056406  0.942667456279988  0.27721224082579665  1.0000
  C   C18       1.0  0.9989696190421727  0.004839607050017625  0.410287850129744  1.0000
  C   C19       1.0  0.008744127732524198  0.959881300626921  0.005663641097236605  1.0000
  H   H7        1.0  0.9350679820875514  0.23365697151109988  0.744933540551306  1.0000
  H   H8        1.0  0.01868816952806096  0.3585989976826114  0.27620850362477545  1.0000
  H   H9        1.0  0.022245167864237025  0.245862255938597  0.047756430882355705  1.0000
  H   H10       1.0  0.9951870548310273  0.8262197083384036  0.27535761414615956  1.0000
  H   H11       1.0  0.9556958815887474  0.7057538398360214  0.637154734978914  1.0000
  H   H12       1.0  0.07529710347545926  0.9297956218546359  0.9822463089075844  1.0000
  H   H13       1.0  0.9837054564403449  0.0357626757709264  0.9155119915985637  1.0000
  H   H14       1.0  0.9696700970051546  0.8610961338999015  0.011305025147376524  1.0000
  C   C20       1.0  0.00012027498364353129  0.5849436969573911  0.9867142847979111  1.0000
  C   C21       1.0  0.05962346137868613  0.6693983683822775  0.053602673235749965  1.0000
  C   C22       1.0  0.12300391137926603  0.7419278058629593  0.9730094485868173  1.0000
  C   C23       1.0  0.12739616068547743  0.7303289738090648  0.8240533912349957  1.0000
  C   C24       1.0  0.06814462765060614  0.6490490074290443  0.7554614794166188  1.0000
  C   C25       1.0  0.0032087590159228796  0.5775306711650245  0.8343615066023502  1.0000
  N   N3        1.0  0.18348118938033164  0.8261709077531165  0.042906475547811684  1.0000
  H   H15       1.0  0.8752494848993619  0.30437158490369365  0.11237467116908761  1.0000
  H   H16       1.0  0.05805458541145958  0.6762569516327996  0.16961362859401663  1.0000
  H   H17       1.0  0.17633582113748525  0.7855110805493402  0.7606556617082516  1.0000
  H   H18       1.0  0.07194885213056446  0.6449941738985059  0.6393035194331249  1.0000
  H   H19       1.0  0.9164734466414242  0.392976075456674  0.5680933008874933  1.0000
  H   H20       1.0  0.18096289796874832  0.835244481570282  0.15426277404071187  1.0000
  H   H21       1.0  0.23120496849076355  0.8802323182955851  0.9837939829156124  1.0000
  Zn  Zn1       1.0  0.9088127156337237  0.5822775579050943  0.41022740846705896  1.0000
  Zn  Zn2       1.0  0.09450821408930432  0.5801962513556269  0.41084769522635645  1.0000
  C   C26       1.0  0.0026596430960479367  0.5731852473408297  0.674141419575941  1.0000
  C   C27       1.0  0.0006633033529961363  0.5892903580604492  0.1469338314727089  1.0000
  C   C28       1.0  0.999963101718504  0.8447502205871558  0.40463106126022175  1.0000
  C   C29       1.0  0.003359792671778772  0.3177236517353199  0.41644426754634534  1.0000
  O   O2        1.0  0.07131606257461742  0.589952998986607  0.2009403742682383  1.0000
  O   O3        1.0  0.0729454759102166  0.5709418583021169  0.6206052452574451  1.0000
  O   O4        1.0  0.0707670401377194  0.7902340061296027  0.4029737200282104  1.0000
  O   O5        1.0  0.07349443452187976  0.37066086313488067  0.4185717910651219  1.0000
  O   O6        1.0  0.9298264318323507  0.7918129468377257  0.40250331240902737  1.0000
  O   O7        1.0  0.9320048562948116  0.5725225328009274  0.6201347596610789  1.0000
  O   O8        1.0  0.9303754370129184  0.5915336383915597  0.20046815348302038  1.0000
  O   O9        1.0  0.9325538094166179  0.37224149127595885  0.41809967849298957  1.0000
