data_image0
_chemical_formula_structural       NC9NC3OH6C6FH5C9H8Zn2C4O8
_chemical_formula_sum              "N2 C31 O9 H19 F1 Zn2"
_cell_length_a       15.78231758774541
_cell_length_b       9.275642734913903
_cell_length_c       9.275155815604963
_cell_angle_alpha    85.9664677228866
_cell_angle_beta     90.4446892459172
_cell_angle_gamma    90.2347076146716

_space_group_name_H-M_alt    "P 1"
_space_group_IT_number       1

loop_
  _space_group_symop_operation_xyz
  'x, y, z'

loop_
  _atom_site_type_symbol
  _atom_site_label
  _atom_site_symmetry_multiplicity
  _atom_site_fract_x
  _atom_site_fract_y
  _atom_site_fract_z
  _atom_site_occupancy
  N   N1        1.0  0.8016534844932742  0.5558307110426117  0.4106997268067041  1.0000
  C   C1        1.0  0.752658552549924  0.46492838956576565  0.4375526097057987  1.0000
  C   C2        1.0  0.6918296619988941  0.3520965161397449  0.4708839533893219  1.0000
  C   C3        1.0  0.7107701787017038  0.2103607450999645  0.512665366067359  1.0000
  C   C4        1.0  0.6336899630883398  0.1416707513089135  0.532997008597871  1.0000
  C   C5        1.0  0.5724438958204601  0.24657183610714384  0.5021197928307113  1.0000
  C   C6        1.0  0.47925445695624325  0.22717810180141673  0.5079303572260954  1.0000
  C   C7        1.0  0.4261146929552638  0.34609505987651334  0.4727440160904701  1.0000
  C   C8        1.0  0.3378275040519372  0.33019273082176803  0.4775164862956405  1.0000
  C   C9        1.0  0.2840088212047523  0.4525695610286342  0.4412972286981762  1.0000
  N   N2        1.0  0.24075140927368882  0.5509447315078613  0.4121801896388759  1.0000
  C   C10       1.0  0.3019978993608249  0.19519647181250055  0.5175299224942536  1.0000
  C   C11       1.0  0.35420800040859557  0.0765254126563033  0.5526483522189889  1.0000
  C   C12       1.0  0.4423073047622662  0.09199086712370685  0.5480055779189137  1.0000
  O   O1        1.0  0.6095354689739341  0.37089233019568857  0.46541812169103425  1.0000
  H   H1        1.0  0.7729868671790833  0.16256187465317296  0.5266991260171376  1.0000
  H   H2        1.0  0.6243824810496506  0.02872536189651509  0.5663084160252305  1.0000
  H   H3        1.0  0.4532546966674502  0.45114604126944235  0.44160122789467193  1.0000
  H   H4        1.0  0.233813248364996  0.18172800529793043  0.5215696011802144  1.0000
  H   H5        1.0  0.32634133710642577  0.9721926183209748  0.5835787022445196  1.0000
  H   H6        1.0  0.48091530739195526  0.9979951095426247  0.5758310028844436  1.0000
  C   C13       1.0  0.01858870996396389  0.12987818556262964  0.4120508413951165  1.0000
  C   C14       1.0  0.001704309232650747  0.21225739018957612  0.28179461864325894  1.0000
  C   C15       1.0  0.9928138459610899  0.14596159623367888  0.15200993841240962  1.0000
  C   C16       1.0  0.0007358761964144644  0.9965667597044905  0.15018803888167653  1.0000
  C   C17       1.0  0.016081424793152888  0.9125978234113592  0.27842295808530504  1.0000
  C   C18       1.0  0.023824264928221428  0.9768861915287952  0.4108415435020192  1.0000
  F   F1        1.0  0.9774778268735792  0.22715786207207866  0.02729434028758182  1.0000
  H   H7        1.0  0.1073402365751781  0.21080943897869386  0.7342710974057274  1.0000
  H   H8        1.0  0.9973713412849164  0.3289150948430699  0.2799355043037879  1.0000
  H   H9        1.0  0.9941744366101533  0.9453101765902145  0.04936971853276706  1.0000
  H   H10       1.0  0.019892967112761006  0.7963613666057268  0.27447481736045565  1.0000
  H   H11       1.0  0.08019994270417041  0.6807173894077363  0.6296019865188212  1.0000
  C   C19       1.0  0.019631537571497937  0.5497540851723006  0.9882149377613372  1.0000
  C   C20       1.0  0.9537841693850123  0.6207641382488269  0.05570600680306481  1.0000
  C   C21       1.0  0.8936711349763536  0.7012958551403001  0.9741028851369737  1.0000
  C   C22       1.0  0.8982918546789943  0.7125022505421281  0.8235203602958121  1.0000
  C   C23       1.0  0.9624294193964454  0.640736309530108  0.7543162841874493  1.0000
  C   C24       1.0  0.022781400363949267  0.5570102529245735  0.8346774222732569  1.0000
  C   C25       1.0  0.8364869720906337  0.7964223800963282  0.7395940353869874  1.0000
  C   C26       1.0  0.7847365393515191  0.8666939979691703  0.6692905590056157  1.0000
  C   C27       1.0  0.7219466995174542  0.9519567184483948  0.5839777026938511  1.0000
  H   H12       1.0  0.21557342403264768  0.43120791063383557  0.1020019661682865  1.0000
  H   H13       1.0  0.9499529065245134  0.6168087265223412  0.17249041854981417  1.0000
  H   H14       1.0  0.8440069312366462  0.7560582838867875  0.028669949116469917  1.0000
  H   H15       1.0  0.9640368171485412  0.6475005033459458  0.6371655842176756  1.0000
  H   H16       1.0  0.1534851450896233  0.47203200515033816  0.5616566909097558  1.0000
  H   H17       1.0  0.7391896515744193  0.9559088071333088  0.4680308481264466  1.0000
  H   H18       1.0  0.658525716704893  0.9013027997034637  0.5988645479113717  1.0000
  H   H19       1.0  0.7204907643424338  0.06334083415106084  0.6203162098397934  1.0000
  Zn  Zn1       1.0  0.928367664036521  0.5544169418870235  0.4111352779144475  1.0000
  Zn  Zn2       1.0  0.11403717232289723  0.5523468309661277  0.4117564369943265  1.0000
  C   C28       1.0  0.022148618435469336  0.5498933768232215  0.6746861193249964  1.0000
  C   C29       1.0  0.020258257203458196  0.5568721943213526  0.14820574122711094  1.0000
  C   C30       1.0  0.022808884897564052  0.8167344676630641  0.40532688395113037  1.0000
  C   C31       1.0  0.01959791696100477  0.2900293721331566  0.4175650557016859  1.0000
  O   O2        1.0  0.09092916191607903  0.5584692086740377  0.20213585202071793  1.0000
  O   O3        1.0  0.09239656614331726  0.5467241046439291  0.6212270405710827  1.0000
  O   O4        1.0  0.09292879539560306  0.762201683600179  0.40371754692671047  1.0000
  O   O5        1.0  0.09039686896900911  0.34299163981459047  0.41964523737504855  1.0000
  O   O6        1.0  0.9520079040304996  0.7637721337464931  0.40324647731417107  1.0000
  O   O7        1.0  0.9514756851986638  0.5482962868465282  0.6207558916382805  1.0000
  O   O8        1.0  0.9500082742690088  0.5600413257651427  0.20166297036633085  1.0000
  O   O9        1.0  0.9494759816568138  0.34456374751682506  0.4191724637911496  1.0000
