data_image0
_chemical_formula_structural       NC9NC3OH6C6NCOH7C7NH5Zn2C4O8
_chemical_formula_sum              "N4 C30 O10 H18 Zn2"
_cell_length_a       15.78231758774541
_cell_length_b       10.299619329790078
_cell_length_c       10.302823150593486
_cell_angle_alpha    85.56660440825654
_cell_angle_beta     90.08385050025007
_cell_angle_gamma    89.65730562172189

_space_group_name_H-M_alt    "P 1"
_space_group_IT_number       1

loop_
  _space_group_symop_operation_xyz
  'x, y, z'

loop_
  _atom_site_type_symbol
  _atom_site_label
  _atom_site_symmetry_multiplicity
  _atom_site_fract_x
  _atom_site_fract_y
  _atom_site_fract_z
  _atom_site_occupancy
  N   N1        1.0  0.7982747898010316  0.4132657335530803  0.5705189538711284  1.0000
  C   C1        1.0  0.7497195353998262  0.33120255165460155  0.5945823607907517  1.0000
  C   C2        1.0  0.689436390104977  0.2293421956592514  0.6244512481703728  1.0000
  C   C3        1.0  0.709062778735179  0.10138917400059366  0.6618919996064774  1.0000
  C   C4        1.0  0.6323146556312504  0.03937813086287467  0.680111780794902  1.0000
  C   C5        1.0  0.5705607941636732  0.1340780109816515  0.6524426067814133  1.0000
  C   C6        1.0  0.47746485971677904  0.11656945050050727  0.6576499511728546  1.0000
  C   C7        1.0  0.42375012887883384  0.22392363445153296  0.626118495048549  1.0000
  C   C8        1.0  0.33553958178428217  0.20956703461435677  0.6303955510245598  1.0000
  C   C9        1.0  0.2811292371972313  0.32004474423748075  0.597938427024554  1.0000
  N   N2        1.0  0.23739621087925222  0.40885456921161145  0.5718457997357613  1.0000
  C   C10       1.0  0.3003624331052357  0.08769646918369856  0.6662530245177263  1.0000
  C   C11       1.0  0.3531462942685912  0.9805642369902616  0.6977236459509035  1.0000
  C   C12       1.0  0.44117106753948787  0.9945264380011887  0.6935628160733907  1.0000
  O   O1        1.0  0.6070509676629796  0.24630967866963194  0.6195536109336601  1.0000
  H   H1        1.0  0.7715109778269945  0.05823882484810006  0.6744675306699477  1.0000
  H   H2        1.0  0.6235536641632357  0.9374157096702528  0.7099625531234861  1.0000
  H   H3        1.0  0.4503824256225682  0.31876054378219254  0.598210302528458  1.0000
  H   H4        1.0  0.2322427025043094  0.07553717518330982  0.6698733467614577  1.0000
  H   H5        1.0  0.3257838652372165  0.8863756819898868  0.725441467043803  1.0000
  H   H6        1.0  0.480233494517011  0.9096701654928259  0.7184980117882085  1.0000
  C   C13       1.0  0.017727159858398123  0.029692761879163587  0.5711482439568059  1.0000
  C   C14       1.0  0.9768586051196384  0.03819475411849149  0.449516910315632  1.0000
  C   C15       1.0  0.9575299256049377  0.9257376581846284  0.3873354427542097  1.0000
  C   C16       1.0  0.9771109431595942  0.8030337620326223  0.44961761594081984  1.0000
  C   C17       1.0  0.017951891384994978  0.792417517517257  0.5712277711302316  1.0000
  C   C18       1.0  0.03832918458267787  0.9063668384658702  0.6310611497646146  1.0000
  N   N3        1.0  0.9145332117872716  0.9382480148507042  0.2637765828226031  1.0000
  C   C19       1.0  0.9278559586699735  0.8534357762835924  0.16166491629155488  1.0000
  O   O2        1.0  0.9873417426432882  0.7711138156408096  0.16730252166048531  1.0000
  H   H7        1.0  0.09401268313449407  0.22086523381438616  0.8012210547729164  1.0000
  H   H8        1.0  0.9604387444594066  0.1324618606285315  0.4018837692158499  1.0000
  H   H9        1.0  0.9589923796472656  0.7158223572464633  0.4046542925700163  1.0000
  H   H10       1.0  0.0698442595184654  0.898937115640285  0.7248181298195513  1.0000
  H   H11       1.0  0.03249166792151592  0.46083539190777795  0.6188222190272021  1.0000
  H   H12       1.0  0.8753130185010278  0.01924352131567364  0.24263160399372352  1.0000
  H   H13       1.0  0.8876318065780284  0.8627103132392893  0.07628901521961651  1.0000
  C   C20       1.0  0.01783955210455046  0.4110551404306413  0.18993991547724165  1.0000
  C   C21       1.0  0.929050922860543  0.4213599301866435  0.18784315217102576  1.0000
  C   C22       1.0  0.8848777428425186  0.42648655361825005  0.06969748490164718  1.0000
  C   C23       1.0  0.9290509063594726  0.42135984555132877  0.9525421582638569  1.0000
  C   C24       1.0  0.017839551596635195  0.4110551336888679  0.9524360820899367  1.0000
  C   C25       1.0  0.06176995467154178  0.405956550299057  0.07168044468187595  1.0000
  C   C26       1.0  0.7938564108478111  0.43705026305160954  0.06867709077849149  1.0000
  N   N4        1.0  0.7207050002570038  0.4455401927103888  0.06785699264132705  1.0000
  H   H14       1.0  0.05147083896069171  0.4071522245183663  0.5180563522771091  1.0000
  H   H15       1.0  0.8940338177711302  0.4254240068585331  0.27787485384780286  1.0000
  H   H16       1.0  0.8940338513479711  0.4254239109010094  0.8617253174416368  1.0000
  H   H17       1.0  0.13024054734817248  0.3980098897554265  0.07244805003296961  1.0000
  H   H18       1.0  0.05147081051026814  0.4071520163299944  0.6250736518619986  1.0000
  Zn  Zn1       1.0  0.9249957417118632  0.41198929784759986  0.5709093436568551  1.0000
  Zn  Zn2       1.0  0.11067522735200175  0.4101204054896024  0.5714660218005925  1.0000
  C   C27       1.0  0.01783611809443375  0.40588147405443453  0.8083074257148581  1.0000
  C   C28       1.0  0.017836879066509326  0.4162298474873869  0.33406807341835343  1.0000
  C   C29       1.0  0.017905076209242754  0.6482463203121287  0.5660391708368451  1.0000
  C   C30       1.0  0.01776785713247464  0.17386344157122302  0.5763363971604729  1.0000
  O   O3        1.0  0.08830037742459051  0.4172516258189076  0.38265005571422894  1.0000
  O   O4        1.0  0.08829905271767924  0.4034402699479469  0.7601475754197258  1.0000
  O   O5        1.0  0.08835378737366506  0.5991529579836228  0.5645142428105003  1.0000
  O   O6        1.0  0.08824557941151423  0.22153894771114646  0.5782832907906512  1.0000
  O   O7        1.0  0.9474253262890554  0.6005707562652312  0.5640920744700002  1.0000
  O   O8        1.0  0.9473705920890003  0.4048596285271988  0.7597253380183235  1.0000
  O   O9        1.0  0.9473719168389744  0.418670939141883  0.38222625740232274  1.0000
  O   O10       1.0  0.9473171188196934  0.2229582517453823  0.5778595898147525  1.0000
