data_image0
_chemical_formula_structural       NC9NC3OH6C6NCOH7C6NCH9Zn2C4O8
_chemical_formula_sum              "N4 C30 O10 H22 Zn2"
_cell_length_a       15.78231758774541
_cell_length_b       10.299619329790078
_cell_length_c       9.273390368590327
_cell_angle_alpha    86.17370271239355
_cell_angle_beta     90.0787864382203
_cell_angle_gamma    89.65730562172189

_space_group_name_H-M_alt    "P 1"
_space_group_IT_number       1

loop_
  _space_group_symop_operation_xyz
  'x, y, z'

loop_
  _atom_site_type_symbol
  _atom_site_label
  _atom_site_symmetry_multiplicity
  _atom_site_fract_x
  _atom_site_fract_y
  _atom_site_fract_z
  _atom_site_occupancy
  N   N1        1.0  0.7984175261724672  0.3980795351632336  0.4130482871581318  1.0000
  C   C1        1.0  0.7498598689948154  0.31627199266088835  0.43976250273400197  1.0000
  C   C2        1.0  0.6895737412353752  0.2147289510158472  0.4729217265769019  1.0000
  C   C3        1.0  0.709196391336117  0.08717368396940572  0.5144869259074685  1.0000
  C   C4        1.0  0.6324464489527639  0.02535620003451533  0.5347137858877913  1.0000
  C   C5        1.0  0.57069535030426  0.11976213462180652  0.50399659434997  1.0000
  C   C6        1.0  0.47759889589423293  0.10230889475175209  0.5097775762830532  1.0000
  C   C7        1.0  0.4238873135314951  0.20932810192954854  0.47477263624528665  1.0000
  C   C8        1.0  0.3356763393648586  0.19501693971517442  0.47952084981931864  1.0000
  C   C9        1.0  0.28126923568269396  0.3051498386634297  0.4434882709577683  1.0000
  N   N2        1.0  0.23753881476263214  0.3936824666676575  0.41452129746719346  1.0000
  C   C10       1.0  0.30049561024963295  0.0735273088255517  0.5193283583779398  1.0000
  C   C11       1.0  0.3532763290122394  0.9667294071234704  0.5542657622160854  1.0000
  C   C12       1.0  0.44130151774982607  0.980647405248212  0.549646578129074  1.0000
  O   O1        1.0  0.6071888078316687  0.23164440361216942  0.46748456892956725  1.0000
  H   H1        1.0  0.7716433347375002  0.04415693190804171  0.5284477689806344  1.0000
  H   H2        1.0  0.6236824768289801  0.9237109007456076  0.5678528991378657  1.0000
  H   H3        1.0  0.4505223969607504  0.3038685264978118  0.44379009608358433  1.0000
  H   H4        1.0  0.2323755181527203  0.06140647558823331  0.5233474928752373  1.0000
  H   H5        1.0  0.32591113230428875  0.8728353144604529  0.5850369597627338  1.0000
  H   H6        1.0  0.4803614549011517  0.8960560336491968  0.5773286181650987  1.0000
  C   C13       1.0  0.017869833394034806  0.014513248799424394  0.4137468994146878  1.0000
  C   C14       1.0  0.9770134237727383  0.02172308150428459  0.2787167401972428  1.0000
  C   C15       1.0  0.9576909531945423  0.9086053961172649  0.2096854041603997  1.0000
  C   C16       1.0  0.9772657517570482  0.786563159272127  0.2788285394860943  1.0000
  C   C17       1.0  0.018094556979693976  0.7772388493003692  0.4138351872478332  1.0000
  C   C18       1.0  0.038465875701968244  0.8918238146044899  0.480259770467099  1.0000
  N   N3        1.0  0.9147065769614657  0.9198031160297258  0.07251538365802612  1.0000
  C   C19       1.0  0.9280395198861517  0.8339060865659051  0.9591551648979268  1.0000
  O   O2        1.0  0.9875247409339655  0.7516440174437606  0.9654138050672234  1.0000
  H   H7        1.0  0.09413238346718367  0.2081299163807695  0.6691643757021304  1.0000
  H   H8        1.0  0.9605983193712475  0.11548415379118282  0.22583636444056876  1.0000
  H   H9        1.0  0.9591516779171381  0.6988740832703717  0.22891208677649622  1.0000
  H   H10       1.0  0.06997158882693189  0.8853901260414104  0.5843449561307983  1.0000
  H   H11       1.0  0.03262958112106307  0.4461623468539087  0.46667260738460326  1.0000
  H   H12       1.0  0.8754884950411336  0.0005739872368062393  0.04904108824056164  1.0000
  H   H13       1.0  0.8878238927385282  0.8422736262760621  0.8643743122182506  1.0000
  C   C20       1.0  0.018020290008872397  0.3918258322732897  0.9905449188998015  1.0000
  C   C21       1.0  0.09584172208001496  0.3884661778940335  0.0644081559214682  1.0000
  C   C22       1.0  0.17230931725980914  0.3971926746405572  0.9892509623748915  1.0000
  C   C23       1.0  0.17289837400330077  0.4096111983233688  0.837626374953913  1.0000
  C   C24       1.0  0.0955927541554733  0.4107755288775561  0.7629550149634325  1.0000
  C   C25       1.0  0.017944151484265536  0.3999262567239079  0.8370371271519952  1.0000
  N   N4        1.0  0.25079851608393877  0.4198186607502272  0.7571006752314964  1.0000
  C   C26       1.0  0.33445796183186616  0.41913401775836046  0.8243695210349418  1.0000
  H   H14       1.0  0.8842625829253675  0.3307823317295038  0.275929076152839  1.0000
  H   H15       1.0  0.09759910497905078  0.38217976883473903  0.18146145363014088  1.0000
  H   H16       1.0  0.23068893221776632  0.3954130880463764  0.050567660530285385  1.0000
  H   H17       1.0  0.0962253551855703  0.4171683919016411  0.6458302383243564  1.0000
  H   H18       1.0  0.8204487310869523  0.3010097342547937  0.7408719827373345  1.0000
  H   H19       1.0  0.24805180948007677  0.42845310537726  0.6442166154972719  1.0000
  H   H20       1.0  0.33998158256357724  0.5023877420252403  0.8938661409002862  1.0000
  H   H21       1.0  0.34476613793932653  0.32619872918413906  0.8899473890148735  1.0000
  H   H22       1.0  0.38411656786410764  0.42845463756621327  0.7396466572242342  1.0000
  Zn  Zn1       1.0  0.9251384391021442  0.39680724679272594  0.41348168201902324  1.0000
  Zn  Zn2       1.0  0.11081786915692304  0.394944268346461  0.4140996834511501  1.0000
  C   C27       1.0  0.01795511083965473  0.3932214392104538  0.67703137648161  1.0000
  C   C28       1.0  0.018003225503142817  0.3985316955534668  0.15055013738995981  1.0000
  C   C29       1.0  0.01804825989544101  0.633012530613474  0.40807501424998893  1.0000
  C   C30       1.0  0.017910012621254356  0.15873904522356042  0.4195065760717107  1.0000
  O   O3        1.0  0.08846187285890461  0.4000695881932639  0.20448387804813595  1.0000
  O   O4        1.0  0.08842285431454533  0.3902686053464488  0.623566269600313  1.0000
  O   O5        1.0  0.08849712332679549  0.5839029680984733  0.4063821011820463  1.0000
  O   O6        1.0  0.08838754049930309  0.20643523433300714  0.42166793818945236  1.0000
  O   O7        1.0  0.9475687043964887  0.5853162814432642  0.4059134270622471  1.0000
  O   O8        1.0  0.9474944358470649  0.3916834782552103  0.6230975188119092  1.0000
  O   O9        1.0  0.9475334545903474  0.4014843992632997  0.2040133944003817  1.0000
  O   O10       1.0  0.9474591222148214  0.2078500371483596  0.4211975626001736  1.0000
