data_image0
_chemical_formula_structural       NC9NC3OH6C7F3H5C7NH5Zn2C4O8
_chemical_formula_sum              "N3 C30 O9 H16 F3 Zn2"
_cell_length_a       15.78231758774541
_cell_length_b       9.27228830945605
_cell_length_c       10.302823150593486
_cell_angle_alpha    85.26210332699969
_cell_angle_beta     90.08385050025007
_cell_angle_gamma    89.05832516092083

_space_group_name_H-M_alt    "P 1"
_space_group_IT_number       1

loop_
  _space_group_symop_operation_xyz
  'x, y, z'

loop_
  _atom_site_type_symbol
  _atom_site_label
  _atom_site_symmetry_multiplicity
  _atom_site_fract_x
  _atom_site_fract_y
  _atom_site_fract_z
  _atom_site_occupancy
  N   N1        1.0  0.7886179993542751  0.5707064170148142  0.5629491341136785  1.0000
  C   C1        1.0  0.7406234795213631  0.47950122937856143  0.5874520928323346  1.0000
  C   C2        1.0  0.6810363421246223  0.3662934220972851  0.6178665708372766  1.0000
  C   C3        1.0  0.701537028834691  0.2240861730115693  0.6559926720192797  1.0000
  C   C4        1.0  0.6252126248054904  0.15516697326749718  0.6745446005232294  1.0000
  C   C5        1.0  0.5628116826962983  0.2604166130639247  0.6463681892602049  1.0000
  C   C6        1.0  0.4698353835703325  0.24095756325643736  0.6516693140666867  1.0000
  C   C7        1.0  0.4153871057189807  0.36027122212604956  0.6195628409420928  1.0000
  C   C8        1.0  0.3272746567194045  0.3443152678030974  0.6239167946101065  1.0000
  C   C9        1.0  0.2721094221880641  0.4671004194715491  0.5908679231918994  1.0000
  N   N2        1.0  0.22776956174892352  0.5658038399741661  0.5642996073246713  1.0000
  C   C10       1.0  0.2929302449305626  0.2088680729674146  0.6604270386277018  1.0000
  C   C11       1.0  0.3464461365194946  0.08980109173360362  0.692471488229683  1.0000
  C   C12       1.0  0.4343755066074389  0.10531871039713603  0.6882358731631137  1.0000
  O   O1        1.0  0.5985349815232611  0.38515111730085505  0.6128780513375356  1.0000
  H   H1        1.0  0.764280072604034  0.17612878700755497  0.6687993276036386  1.0000
  H   H2        1.0  0.6171483386431549  0.04184573051792673  0.7049415101649437  1.0000
  H   H3        1.0  0.4413713855057614  0.4656731564678791  0.5911466772082783  1.0000
  H   H4        1.0  0.22489359831826944  0.19535420883036791  0.6641124892204591  1.0000
  H   H5        1.0  0.3197272942648504  0.9851197397160323  0.7206938077814637  1.0000
  H   H6        1.0  0.47401775323405665  0.011009276163735038  0.713625581198529  1.0000
  C   C13       1.0  0.010691308786703546  0.14440263443673507  0.56563294104673  1.0000
  C   C14       1.0  0.05095252682671236  0.2259628734209811  0.463212222600329  1.0000
  C   C15       1.0  0.08284545592488302  0.15999060724828995  0.35623924936542384  1.0000
  C   C16       1.0  0.07416697083802526  0.010882800266563963  0.34791383755631333  1.0000
  C   C17       1.0  0.03699678649275384  0.9276056013470053  0.45199662983696  1.0000
  C   C18       1.0  0.005704424034077782  0.9920964646272081  0.5616271095620327  1.0000
  C   C19       1.0  0.11079355298153848  0.9389326862770196  0.23398750044236394  1.0000
  F   F1        1.0  0.11005972137855613  0.03354087789449922  0.12276795151277309  1.0000
  F   F2        1.0  0.06413192513196209  0.8191005135956732  0.2090956560019268  1.0000
  F   F3        1.0  0.19342469543003582  0.8954528919569834  0.26235657796147205  1.0000
  H   H7        1.0  0.8682284560167407  0.22856963292718002  0.7987205690135126  1.0000
  H   H8        1.0  0.05629751020463236  0.34216747231750255  0.4645720621387799  1.0000
  H   H9        1.0  0.11372075541821114  0.22612322749569458  0.27929312026222863  1.0000
  H   H10       1.0  0.034289171594211076  0.8111970156398074  0.449068973235359  1.0000
  H   H11       1.0  0.9662407538919433  0.862849607304278  0.8759263137929691  1.0000
  C   C20       1.0  0.00819786655564858  0.5682495593125518  0.1823819362329362  1.0000
  C   C21       1.0  0.9193388250792427  0.579702323652241  0.18022997778596261  1.0000
  C   C22       1.0  0.8751306150403217  0.5854000633840306  0.06205685098479141  1.0000
  C   C23       1.0  0.9193388091564821  0.5797022295883794  0.9449289843321225  1.0000
  C   C24       1.0  0.008197866093799355  0.5682495518197308  0.9448781028817419  1.0000
  C   C25       1.0  0.05216310759307463  0.5625829758475482  0.06414977481569806  1.0000
  C   C26       1.0  0.7840371016250104  0.5971405915809065  0.06097987487957668  1.0000
  N   N3        1.0  0.7108276796711057  0.6065763167092044  0.060114302465534175  1.0000
  H   H12       1.0  0.04185582188623238  0.5639118506121026  0.5105192780680579  1.0000
  H   H13       1.0  0.8842939503101097  0.5842191467494291  0.2702399112084357  1.0000
  H   H14       1.0  0.8842939845426249  0.5842190401020417  0.8540903753162437  1.0000
  H   H15       1.0  0.12068799949581654  0.5537510411212045  0.06495994455264009  1.0000
  H   H16       1.0  0.041855794858352  0.5639116192311215  0.6175365787680596  1.0000
  Zn  Zn1       1.0  0.9153476731012301  0.5692877837699086  0.5633463608218556  1.0000
  Zn  Zn2       1.0  0.10103992881103063  0.5672106929937548  0.563913049240349  1.0000
  C   C27       1.0  0.008229784009060603  0.5624995359562424  0.8007771579766216  1.0000
  C   C28       1.0  0.008159834943148425  0.5740007392833333  0.32648237709382166  1.0000
  C   C29       1.0  0.00664267244326755  0.8318643201137799  0.557210733788934  1.0000
  C   C30       1.0  0.009746893346801677  0.3046342217181939  0.5700488784995528  1.0000
  O   O2        1.0  0.07861635152915603  0.5751363458037373  0.37505888647854  1.0000
  O   O3        1.0  0.0787093992861525  0.5597863767362399  0.7526303834071921  1.0000
  O   O4        1.0  0.07742683666586436  0.7773018571519472  0.5559487626116035  1.0000
  O   O5        1.0  0.0798988507245173  0.35762087642193485  0.5717404096881491  1.0000
  O   O6        1.0  0.9364886878200811  0.7788776010521088  0.5555190001738366  1.0000
  O   O7        1.0  0.9377712402348463  0.5613638547543842  0.7522005435511621  1.0000
  O   O8        1.0  0.9376781928301472  0.5767137735239631  0.37462748595440987  1.0000
  O   O9        1.0  0.9389606920827728  0.35919829381863644  0.5713091065497797  1.0000
