data_image0
_chemical_formula_structural       NC9NC3OH6C6SCH8C7NH5Zn2C4O8
_chemical_formula_sum              "N3 C30 O9 H19 S1 Zn2"
_cell_length_a       15.78231758774541
_cell_length_b       10.302809429070853
_cell_length_c       10.302823150593486
_cell_angle_alpha    85.5606949210533
_cell_angle_beta     90.08385050025007
_cell_angle_gamma    89.63144148246117

_space_group_name_H-M_alt    "P 1"
_space_group_IT_number       1

loop_
  _space_group_symop_operation_xyz
  'x, y, z'

loop_
  _atom_site_type_symbol
  _atom_site_label
  _atom_site_symmetry_multiplicity
  _atom_site_fract_x
  _atom_site_fract_y
  _atom_site_fract_z
  _atom_site_occupancy
  N   N1        1.0  0.7978582510664112  0.41284350098500444  0.5703715486550847  1.0000
  C   C1        1.0  0.7493271835489145  0.3308048365903573  0.5944435148574883  1.0000
  C   C2        1.0  0.6890740600559012  0.2289749127767804  0.624323026387561  1.0000
  C   C3        1.0  0.7087381609071437  0.10106011884249533  0.6617771234686876  1.0000
  C   C4        1.0  0.6320083146218118  0.03906760235646822  0.680003372479117  1.0000
  C   C5        1.0  0.57022654179454  0.13373918958408515  0.6523243211609173  1.0000
  C   C6        1.0  0.47713576773146793  0.11623586002609954  0.6575334917150393  1.0000
  C   C7        1.0  0.42338939586885377  0.2235579704387194  0.6259908384278061  1.0000
  C   C8        1.0  0.3351830801653191  0.20920565983312533  0.6302693918134337  1.0000
  C   C9        1.0  0.2807401739415726  0.3196503627216052  0.5978007448632365  1.0000
  N   N2        1.0  0.23698097226871281  0.4084336545395295  0.5716988546091528  1.0000
  C   C10       1.0  0.30004185099518504  0.08737150490941747  0.6661395765445508  1.0000
  C   C11       1.0  0.35285728776628056  0.9802712799432476  0.697621371990836  1.0000
  C   C12       1.0  0.4408779458892585  0.9942293095546646  0.6934590858399501  1.0000
  O   O1        1.0  0.6066836367044959  0.2459373265183351  0.6194236194231606  1.0000
  H   H1        1.0  0.7711990779128006  0.05792266145006075  0.6743571551624272  1.0000
  H   H2        1.0  0.6232773750378088  0.937135643839  0.7098647796036688  1.0000
  H   H3        1.0  0.4499937408656023  0.31836654593885827  0.5980727543107018  1.0000
  H   H4        1.0  0.23192570416255973  0.07521584366528278  0.6697611670164128  1.0000
  H   H5        1.0  0.3255226193892427  0.8861108650686237  0.7253490170566579  1.0000
  H   H6        1.0  0.47996538297177194  0.9093983890243534  0.7184031321600612  1.0000
  C   C13       1.0  0.017423673465218448  0.02938512700989948  0.5710408458359713  1.0000
  C   C14       1.0  0.06630368617427806  0.036558318984025506  0.45695246594114813  1.0000
  C   C15       1.0  0.09039224981510485  0.9231507738142202  0.40003794877747256  1.0000
  C   C16       1.0  0.06630357933501974  0.8014071621363502  0.4569523958460877  1.0000
  C   C17       1.0  0.017423639692486725  0.7918819887181394  0.5710408389183641  1.0000
  C   C18       1.0  0.9932005666610161  0.906501952132609  0.6275028252354968  1.0000
  S   S1        1.0  0.15300000601347463  0.9338046288418058  0.2544253462229349  1.0000
  C   C19       1.0  0.06117905370981691  0.943024689746996  0.14700560459020462  1.0000
  H   H7        1.0  0.9989752949841214  0.35399749593462326  0.6140072369021286  1.0000
  H   H8        1.0  0.08571830164698402  0.1299743367073536  0.4116347931376221  1.0000
  H   H9        1.0  0.08571811466513846  0.7146239450970886  0.4116346914030313  1.0000
  H   H10       1.0  0.9554834128892553  0.900063060381702  0.715490890699213  1.0000
  H   H11       1.0  0.9989739109339926  0.4609817418554364  0.6140058050906247  1.0000
  H   H12       1.0  0.022295353944060237  0.853960007326221  0.16420002988624605  1.0000
  H   H13       1.0  0.02229614746144115  0.030194961023159994  0.16419956034578198  1.0000
  H   H14       1.0  0.08305762881679102  0.950746420988808  0.04445435117530505  1.0000
  C   C20       1.0  0.017423664908873038  0.4106335683076532  0.18979274082856357  1.0000
  C   C21       1.0  0.9286319984836876  0.420935279366041  0.18769490272110967  1.0000
  C   C22       1.0  0.8844573074708187  0.42606037114841433  0.06954870073910269  1.0000
  C   C23       1.0  0.9286319820075621  0.4209351947560125  0.952393908822768  1.0000
  C   C24       1.0  0.017423664402944627  0.41063356156789377  0.9522889074419627  1.0000
  C   C25       1.0  0.061355570208317056  0.40553650144996833  0.07153380182192093  1.0000
  C   C26       1.0  0.7934328619822679  0.43662092452834655  0.06852720480909325  1.0000
  N   N3        1.0  0.7202789491128919  0.44510831770391723  0.06770622116265379  1.0000
  H   H15       1.0  0.05105610209054512  0.4067318184451658  0.517909584706979  1.0000
  H   H16       1.0  0.8936136955690435  0.4249981418391504  0.2777261805100881  1.0000
  H   H17       1.0  0.8936137291741663  0.42499804591029555  0.8615766441139314  1.0000
  H   H18       1.0  0.12982850504314802  0.39759221508042897  0.07230223601870622  1.0000
  H   H19       1.0  0.05105607370148202  0.4067316103189931  0.6249268843135831  1.0000
  Zn  Zn1       1.0  0.924579579187393  0.4115674466322403  0.5707620715745005  1.0000
  Zn  Zn2       1.0  0.11025961565533349  0.40969911263152925  0.5713189446458267  1.0000
  C   C27       1.0  0.01742175575879834  0.40546144763540615  0.8081607906854402  1.0000
  C   C28       1.0  0.017419466704065245  0.4158067293495218  0.33392035904187045  1.0000
  C   C29       1.0  0.01741928049488739  0.647753884063146  0.5658672568795682  1.0000
  C   C30       1.0  0.017421878608435692  0.17351273372928167  0.576213961874523  1.0000
  O   O2        1.0  0.08788266390841182  0.41682820241071816  0.3825022347651095  1.0000
  O   O3        1.0  0.08788540989009208  0.40302097287220784  0.7600011950106598  1.0000
  O   O4        1.0  0.08788246118654541  0.5986751890515922  0.5643474493464959  1.0000
  O   O5        1.0  0.08788554925194259  0.2211739961562822  0.578155882895435  1.0000
  O   O6        1.0  0.9469535822273006  0.6000925637464711  0.5639251331280295  1.0000
  O   O7        1.0  0.946956530926904  0.4044399073985707  0.759578809568551  1.0000
  O   O8        1.0  0.9469537850016256  0.41824709169432484  0.38207828841721647  1.0000
  O   O9        1.0  0.9469566703416886  0.22259287615392442  0.5777320338845184  1.0000
