data_image0
_chemical_formula_structural       NC9NC3OH6C6NH7C6NH7Zn2C4O8
_chemical_formula_sum              "N4 C28 O9 H20 Zn2"
_cell_length_a       15.78231758774541
_cell_length_b       9.274771166103582
_cell_length_c       9.274774538082514
_cell_angle_alpha    84.9550519661537
_cell_angle_beta     90.43038941912484
_cell_angle_gamma    90.23039320205511

_space_group_name_H-M_alt    "P 1"
_space_group_IT_number       1

loop_
  _space_group_symop_operation_xyz
  'x, y, z'

loop_
  _atom_site_type_symbol
  _atom_site_label
  _atom_site_symmetry_multiplicity
  _atom_site_fract_x
  _atom_site_fract_y
  _atom_site_fract_z
  _atom_site_occupancy
  N   N1        1.0  0.8018706232380138  0.5835731950055731  0.4078425230013616  1.0000
  C   C1        1.0  0.7528749887767957  0.4921938596891462  0.4347690301465297  1.0000
  C   C2        1.0  0.6920452261595795  0.37876988940148504  0.46819175996380413  1.0000
  C   C3        1.0  0.7109846634420898  0.23629187645544913  0.5100878440620633  1.0000
  C   C4        1.0  0.6339039096451319  0.16724072945147284  0.5304751775376177  1.0000
  C   C5        1.0  0.5726586329360072  0.2726903643283842  0.49951315640645877  1.0000
  C   C6        1.0  0.47946902937901836  0.25319344669560406  0.5053395436481058  1.0000
  C   C7        1.0  0.426330194900693  0.37273542884932387  0.47005680669834193  1.0000
  C   C8        1.0  0.3380428695072675  0.35674835422924733  0.47484226246588035  1.0000
  C   C9        1.0  0.2842251448928986  0.47976855250566053  0.4385237914609206  1.0000
  N   N2        1.0  0.24096850351738622  0.578660932668372  0.4093269956070311  1.0000
  C   C10       1.0  0.3022121970096339  0.22104135623907473  0.5149652266929212  1.0000
  C   C11       1.0  0.354421369576675  0.10174648143052245  0.5501798597557948  1.0000
  C   C12       1.0  0.4425208069276791  0.11729437782707541  0.5455244546368354  1.0000
  O   O1        1.0  0.6097511626844723  0.39766283584730044  0.4627108273459768  1.0000
  H   H1        1.0  0.7732009981684006  0.18824367332552328  0.5241601957396524  1.0000
  H   H2        1.0  0.6245955643711508  0.05370357414204774  0.5638779874472055  1.0000
  H   H3        1.0  0.4534710305091316  0.47833958199705773  0.438828778885372  1.0000
  H   H4        1.0  0.2340274308424009  0.20750115545498304  0.5190159001531753  1.0000
  H   H5        1.0  0.32655387997999014  0.9968642889632159  0.5811948673192391  1.0000
  H   H6        1.0  0.48112807246932476  0.022804355660254183  0.5734260923337053  1.0000
  C   C13       1.0  0.01882515752426306  0.15754269944325094  0.40936265132483696  1.0000
  C   C14       1.0  0.9988721629614167  0.24219819448178215  0.28023023469352615  1.0000
  C   C15       1.0  0.9868269690785648  0.17841421521328926  0.15030569062551846  1.0000
  C   C16       1.0  0.9947758637365957  0.028604997623477457  0.14857294145015842  1.0000
  C   C17       1.0  0.013155835081275713  0.9426631060634482  0.2759270649616239  1.0000
  C   C18       1.0  0.024022042161137014  0.0046801871612420776  0.4078194073817254  1.0000
  N   N3        1.0  0.9673895224889514  0.26617578895207994  0.019756518184320226  1.0000
  H   H7        1.0  0.11529522439115936  0.23337417683413175  0.7255504549917133  1.0000
  H   H8        1.0  0.994598133301618  0.3588435427132912  0.2796613883915515  1.0000
  H   H9        1.0  0.9859093142333428  0.9780868913530667  0.04861046860600138  1.0000
  H   H10       1.0  0.01687517563006069  0.8264934640955531  0.2718062091221489  1.0000
  H   H11       1.0  0.08557203580682815  0.7050545950906696  0.622925259667154  1.0000
  H   H12       1.0  0.9615517297084242  0.3783154062941114  0.019689905606454117  1.0000
  H   H13       1.0  0.9586111253698054  0.219653242479539  0.9221678590805085  1.0000
  C   C19       1.0  0.019925663911851688  0.5848176234771878  0.9847628381636793  1.0000
  C   C20       1.0  0.08048419228376358  0.6692655770013909  0.05154724260220345  1.0000
  C   C21       1.0  0.14477096704578862  0.7417892451676056  0.9708647167831863  1.0000
  C   C22       1.0  0.14901827784069455  0.7301913357364682  0.8219229403814183  1.0000
  C   C23       1.0  0.08875107380797087  0.6489178347269535  0.7534311037374017  1.0000
  C   C24       1.0  0.022921515089579403  0.5774051873499071  0.8324191871845987  1.0000
  N   N4        1.0  0.2063009432598295  0.8260256459862618  0.04065802023781595  1.0000
  H   H14       1.0  0.8915488566660144  0.30426782937881125  0.11076867624066544  1.0000
  H   H15       1.0  0.07900102088070149  0.6761236146896563  0.16754975339601907  1.0000
  H   H16       1.0  0.19864749154810624  0.7853690530462194  0.7584572684181863  1.0000
  H   H17       1.0  0.09250462926084313  0.6448633237359325  0.6372781362285682  1.0000
  H   H18       1.0  0.9338800163480135  0.39286527193601306  0.5663782125349961  1.0000
  H   H19       1.0  0.20389603484018637  0.8350984980509566  0.15200314698050166  1.0000
  H   H20       1.0  0.2547002714537123  0.8800827562433728  0.9814789650155085  1.0000
  Zn  Zn1       1.0  0.9285847886018957  0.5821516965014653  0.40827924449080966  1.0000
  Zn  Zn2       1.0  0.11425427913948494  0.58007055550839  0.40890209383871445  1.0000
  C   C25       1.0  0.02231809893868575  0.5730601091800758  0.6722044504193454  1.0000
  C   C26       1.0  0.02052300797320683  0.5891639388274643  0.14497703305393284  1.0000
  C   C27       1.0  0.023015021899809973  0.8446034809390146  0.4023597303505657  1.0000
  C   C28       1.0  0.019826011296841806  0.3176188341275785  0.4148218330144666  1.0000
  O   O2        1.0  0.09118404752761666  0.589826527044212  0.198982759979216  1.0000
  O   O3        1.0  0.09257589845898173  0.5708168985905178  0.6186710382519574  1.0000
  O   O4        1.0  0.09313772802522369  0.7900916029439475  0.40076951168159436  1.0000
  O   O5        1.0  0.09062215428578857  0.3705518346655885  0.4168841781024828  1.0000
  O   O6        1.0  0.9522168500956901  0.7916704180560947  0.4002971600068994  1.0000
  O   O7        1.0  0.9516550308847865  0.572397447355439  0.6181986064653662  1.0000
  O   O8        1.0  0.9502631735685964  0.5914070407180672  0.19850859304698143  1.0000
  O   O9        1.0  0.9497012806424524  0.37213233707646487  0.41641011939720274  1.0000
