data_image0
_chemical_formula_structural       NC9NC3OH6C9H8C9H8Zn2C4O8
_chemical_formula_sum              "N2 C34 O9 H22 Zn2"
_cell_length_a       15.78231758774541
_cell_length_b       9.275152443626249
_cell_length_c       9.275155815604963
_cell_angle_alpha    85.85171904572836
_cell_angle_beta     90.4446892459172
_cell_angle_gamma    90.20707041648352

_space_group_name_H-M_alt    "P 1"
_space_group_IT_number       1

loop_
  _space_group_symop_operation_xyz
  'x, y, z'

loop_
  _atom_site_type_symbol
  _atom_site_label
  _atom_site_symmetry_multiplicity
  _atom_site_fract_x
  _atom_site_fract_y
  _atom_site_fract_z
  _atom_site_occupancy
  N   N1        1.0  0.8011986092624638  0.5561332679716797  0.4075696310314898  1.0000
  C   C1        1.0  0.7522302542559032  0.46521326903993043  0.434605395635125  1.0000
  C   C2        1.0  0.6914343521425634  0.3523594535961294  0.46816373996069327  1.0000
  C   C3        1.0  0.7104163078599833  0.21059611969920744  0.5102303035455606  1.0000
  C   C4        1.0  0.6333561750079111  0.14189276800653383  0.5307001399411502  1.0000
  C   C5        1.0  0.5720794380117495  0.24681425254996014  0.4996118790776236  1.0000
  C   C6        1.0  0.4788956692563087  0.22741674681289825  0.5054614607294385  1.0000
  C   C7        1.0  0.42572113773315107  0.34635683025079533  0.4700358766829811  1.0000
  C   C8        1.0  0.3374385981631665  0.33045140872602174  0.4748403399659564  1.0000
  C   C9        1.0  0.28358413623764667  0.45285203712485966  0.43837487871889524  1.0000
  N   N2        1.0  0.24029796254731192  0.5512463382776649  0.409059923714552  1.0000
  C   C10       1.0  0.301648462068502  0.1954288974688252  0.5151253681938286  1.0000
  C   C11       1.0  0.3538932587454572  0.07673476076892594  0.5504825461180103  1.0000
  C   C12       1.0  0.44198804149396825  0.09220322274889314  0.5458086576656389  1.0000
  O   O1        1.0  0.6091346638216201  0.37115892280795837  0.46266009393096774  1.0000
  H   H1        1.0  0.7726469712011267  0.16278795397410994  0.5243602275840054  1.0000
  H   H2        1.0  0.6240817145953621  0.028925414501300928  0.5642387763875283  1.0000
  H   H3        1.0  0.45283042789207695  0.45142824053878394  0.4386817418215678  1.0000
  H   H4        1.0  0.233467748822308  0.18195781178891868  0.5191921433947482  1.0000
  H   H5        1.0  0.32605709902158  0.9723816772018503  0.5816227979255586  1.0000
  H   H6        1.0  0.4806235254824076  0.998189186143263  0.5738231878606803  1.0000
  C   C13       1.0  0.018258369653287865  0.1300979090014449  0.409777697594808  1.0000
  C   C14       1.0  0.9872381379949261  0.21212764191519318  0.287233211154424  1.0000
  C   C15       1.0  0.9640852107101325  0.14586932031633437  0.16242305842616878  1.0000
  C   C16       1.0  0.971587069898128  0.9964028617935272  0.15768650350408975  1.0000
  C   C17       1.0  0.0009466138864739904  0.9126945491903456  0.27919058376842787  1.0000
  C   C18       1.0  0.023246273859981237  0.9772706687037437  0.4068643306818829  1.0000
  C   C19       1.0  0.9481514903445881  0.928401305031425  0.028439576057213367  1.0000
  C   C20       1.0  0.9285296318830706  0.871432474655788  0.9202155447919278  1.0000
  C   C21       1.0  0.9047223762272297  0.8022988699770677  0.7889046646603393  1.0000
  H   H7        1.0  0.14107535052551046  0.21286234124697057  0.6980241315986231  1.0000
  H   H8        1.0  0.9827732527776025  0.3286909134691163  0.2867647164290401  1.0000
  H   H9        1.0  0.9410848834020888  0.21156086270100039  0.06900390755117525  1.0000
  H   H10       1.0  0.004498987363439122  0.7963103440820188  0.2751821535605883  1.0000
  H   H11       1.0  0.10323061059737992  0.6827772349622453  0.6040015758882247  1.0000
  H   H12       1.0  0.9202615939277963  0.6855201023613187  0.8024215542101443  1.0000
  H   H13       1.0  0.8356880476626078  0.8154797543528491  0.7689400941194049  1.0000
  H   H14       1.0  0.9401566319552078  0.8534492935608491  0.6957364630493208  1.0000
  C   C22       1.0  0.019178438952098587  0.5500554604012973  0.9850970672371284  1.0000
  C   C23       1.0  0.9533103096930531  0.6210793225532192  0.052445274805846376  1.0000
  C   C24       1.0  0.8931737303813091  0.701626700164578  0.9706801355211137  1.0000
  C   C25       1.0  0.8977911736916928  0.7128352748347253  0.8200750651095028  1.0000
  C   C26       1.0  0.9619497204792049  0.6410553777524397  0.7510153712062047  1.0000
  C   C27       1.0  0.022326180272748353  0.5573130392350045  0.8315449534384061  1.0000
  C   C28       1.0  0.8359617555365578  0.79677172404151  0.735979905608902  1.0000
  C   C29       1.0  0.7841907776197624  0.8670570073888497  0.6655350533743212  1.0000
  C   C30       1.0  0.721376009688198  0.9523363086095964  0.5800506613811618  1.0000
  H   H15       1.0  0.2151549845301577  0.4314862326050022  0.099122592594586  1.0000
  H   H16       1.0  0.9494802032686683  0.6171231416317196  0.16923764424198096  1.0000
  H   H17       1.0  0.8434935158556987  0.756399778368074  0.025137025787208334  1.0000
  H   H18       1.0  0.9635551405969722  0.6478208869772704  0.6338510627028442  1.0000
  H   H19       1.0  0.15305476992518496  0.4723182660396541  0.5586951854402993  1.0000
  H   H20       1.0  0.7386178062806003  0.9562891658433035  0.4640958558098274  1.0000
  H   H21       1.0  0.6579698364643776  0.9016725393751539  0.5950394146121547  1.0000
  H   H22       1.0  0.7198875093536271  0.06374208478968768  0.6161650805543495  1.0000
  Zn  Zn1       1.0  0.9279132021466776  0.5547192238853733  0.40800802642867295  1.0000
  Zn  Zn2       1.0  0.11358331566739999  0.5526487103972846  0.4086333502582262  1.0000
  C   C31       1.0  0.02169547909163816  0.5501947791397757  0.6715679685670801  1.0000
  C   C32       1.0  0.019803077476185926  0.5571749537840125  0.14507355014526246  1.0000
  C   C33       1.0  0.022277729737536722  0.8170877616285108  0.4016718893289277  1.0000
  C   C34       1.0  0.01922075355611952  0.29028023961023464  0.4149697119673339  1.0000
  O   O2        1.0  0.09047351527279379  0.5587722787024647  0.19900044798784444  1.0000
  O   O3        1.0  0.09194435339349427  0.5470248906432635  0.618115265908836  1.0000
  O   O4        1.0  0.09241358388070431  0.7625443727668115  0.40017226400758377  1.0000
  O   O5        1.0  0.09000422108784734  0.343252806677683  0.41694334157874136  1.0000
  O   O6        1.0  0.951492233366114  0.7641151283130447  0.39969803488717925  1.0000
  O   O7        1.0  0.9510230127929556  0.548597378582609  0.6176409539835337  1.0000
  O   O8        1.0  0.9495521679888751  0.5603447015176537  0.19852440347195177  1.0000
  O   O9        1.0  0.9490828741415486  0.344825220102176  0.4164674051522259  1.0000
