data_image0
_chemical_formula_structural       NC9NC3OH6C6NCH9C9H8Zn2C4O8
_chemical_formula_sum              "N3 C32 O9 H23 Zn2"
_cell_length_a       15.78231758774541
_cell_length_b       9.273386996610926
_cell_length_c       9.275155815604963
_cell_angle_alpha    85.96204841331945
_cell_angle_beta     90.4446892459172
_cell_angle_gamma    89.03191128213776

_space_group_name_H-M_alt    "P 1"
_space_group_IT_number       1

loop_
  _space_group_symop_operation_xyz
  'x, y, z'

loop_
  _atom_site_type_symbol
  _atom_site_label
  _atom_site_symmetry_multiplicity
  _atom_site_fract_x
  _atom_site_fract_y
  _atom_site_fract_z
  _atom_site_occupancy
  N   N1        1.0  0.7824543550936998  0.5564457426741523  0.4103098102218883  1.0000
  C   C1        1.0  0.7345811682222063  0.4655074868230251  0.4371854747272921  1.0000
  C   C2        1.0  0.6751446359290043  0.3526310101051997  0.47054509592097893  1.0000
  C   C3        1.0  0.6958341883009441  0.21083920984457194  0.5123620298979579  1.0000
  C   C4        1.0  0.6196016150884467  0.14212206238014735  0.5327108872627062  1.0000
  C   C5        1.0  0.5570610564039223  0.24706461536953506  0.5018073815705324  1.0000
  C   C6        1.0  0.46411093844514467  0.22766321457415262  0.507622806352457  1.0000
  C   C7        1.0  0.4095037255439196  0.34662718142097737  0.4724066626850778  1.0000
  C   C8        1.0  0.3214127732048349  0.3307185660554435  0.4771831182736139  1.0000
  C   C9        1.0  0.2660839462385144  0.45314377274762485  0.4409331910439358  1.0000
  N   N2        1.0  0.2216125734219055  0.5515578316747869  0.41179149756032585  1.0000
  C   C10       1.0  0.28724903783149724  0.19566894200533902  0.5172303867393901  1.0000
  C   C11       1.0  0.3409235533586538  0.07695097128311379  0.5523785573695936  1.0000
  C   C12       1.0  0.42883201223059225  0.0924225393614817  0.5477319071740594  1.0000
  O   O1        1.0  0.5926185004030582  0.37143425428840793  0.46507455368473005  1.0000
  H   H1        1.0  0.7586407203212924  0.16302144414325892  0.5264077690252849  1.0000
  H   H2        1.0  0.6116878921078758  0.029132024802217993  0.5660506006491894  1.0000
  H   H3        1.0  0.4353473880982924  0.4517196902603198  0.4412375469977312  1.0000
  H   H4        1.0  0.21923058925704464  0.18219515130422614  0.5212734408430155  1.0000
  H   H5        1.0  0.314344368703644  0.9725769334061406  0.5833350548972678  1.0000
  H   H6        1.0  0.468599933288425  0.9983896245474609  0.5755808890115055  1.0000
  C   C13       1.0  0.004645883577771848  0.13032483494355263  0.41176767546951476  1.0000
  C   C14       1.0  0.019053770883927568  0.21251728923983637  0.2815041966315379  1.0000
  C   C15       1.0  0.025482956548188218  0.14681998957738496  0.15120574323833047  1.0000
  C   C16       1.0  0.017596591483708846  0.9965783231865869  0.14783909685364272  1.0000
  C   C17       1.0  0.004680396415327914  0.9134024514724367  0.27765493348805315  1.0000
  C   C18       1.0  0.9994292258354904  0.9776676571721442  0.41034615108534034  1.0000
  N   N3        1.0  0.023299700701852055  0.9258294977933205  0.014847605469195946  1.0000
  C   C19       1.0  0.03690773614917897  0.0023627516341997445  0.8742518792503642  1.0000
  H   H7        1.0  0.022813779042335502  0.3943060493553152  0.6484445378237651  1.0000
  H   H8        1.0  0.023369492965067407  0.3290999132083634  0.2797505804597651  1.0000
  H   H9        1.0  0.03581544524223079  0.21446361555544513  0.05334370141871503  1.0000
  H   H10       1.0  0.0006724357647789336  0.7970264014564553  0.2753678105834907  1.0000
  H   H11       1.0  0.03189876539190051  0.8489688141210524  0.7614839623735052  1.0000
  H   H12       1.0  0.017319566771144768  0.8135546850581182  0.017816033866952186  1.0000
  H   H13       1.0  0.9842850403678524  0.0813062560273401  0.8490334453949147  1.0000
  H   H14       1.0  0.09824287932764864  0.05923383529378712  0.8746913821314779  1.0000
  H   H15       1.0  0.0387354429729172  0.9241706722780414  0.7889361648284794  1.0000
  C   C20       1.0  0.0005073944320408419  0.5503667146677369  0.9878265440782039  1.0000
  C   C21       1.0  0.9337837540470374  0.6214048385545958  0.055299816840948424  1.0000
  C   C22       1.0  0.8726769490164238  0.7019683902420264  0.9736765126114233  1.0000
  C   C23       1.0  0.8771593805146377  0.7131792156166008  0.8230911792645594  1.0000
  C   C24       1.0  0.942182545174417  0.6413849049860374  0.7539050888730401  1.0000
  C   C25       1.0  0.0035677152822795044  0.5576257508379292  0.8342872100759822  1.0000
  C   C26       1.0  0.8143189139034751  0.7971325194318772  0.7391438226007501  1.0000
  C   C27       1.0  0.761701321340941  0.8674319162060384  0.6688227350043165  1.0000
  C   C28       1.0  0.6978593297580888  0.9527283416826733  0.5834885104623555  1.0000
  H   H16       1.0  0.19791215428207232  0.43177367793107635  0.10164328209249729  1.0000
  H   H17       1.0  0.9300013014208567  0.6174478632239786  0.17208521987847325  1.0000
  H   H18       1.0  0.8223369706257362  0.7567524669902277  0.02822985223193708  1.0000
  H   H19       1.0  0.943706471999096  0.6481517727387818  0.6367526936858283  1.0000
  H   H20       1.0  0.13532010133093708  0.4726139105204934  0.561287775649173  1.0000
  H   H21       1.0  0.71505351258745  0.9566819926580947  0.46754066543698336  1.0000
  H   H22       1.0  0.6350634221119179  0.9020543990610639  0.5983880503791545  1.0000
  H   H23       1.0  0.6950289018215781  0.06415648836758026  0.6197991029298633  1.0000
  Zn  Zn1       1.0  0.9091859807104598  0.5550314146449387  0.4107457156432712  1.0000
  Zn  Zn2       1.0  0.09488103440300377  0.5529604853935595  0.4113673935267541  1.0000
  C   C29       1.0  0.003022756421065864  0.5505060613816992  0.6742976907331004  1.0000
  C   C30       1.0  0.0010462757807849776  0.5574876376590998  0.14781556362957704  1.0000
  C   C31       1.0  0.00039017322040701963  0.8174526365202492  0.4048715806240266  1.0000
  C   C32       1.0  0.0036788065661217395  0.2905393304877817  0.4172417532732635  1.0000
  O   O2        1.0  0.07169747315314545  0.5590852833236211  0.20174527418530652  1.0000
  O   O3        1.0  0.07330981331106412  0.5473355363651764  0.6208394062505531  1.0000
  O   O4        1.0  0.07118302452769476  0.762898295235928  0.4032759104058803  1.0000
  O   O5        1.0  0.07382419811713437  0.34352253455366366  0.41930866173740666  1.0000
  O   O6        1.0  0.9302427536276836  0.7644693661930466  0.4028044472128871  1.0000
  O   O7        1.0  0.9323695314577296  0.5489083400632753  0.6203678633032148  1.0000
  O   O8        1.0  0.9307571854008777  0.5606580218844865  0.2012719985327016  1.0000
  O   O9        1.0  0.9328839108156017  0.3450952637219469  0.4188354941576429  1.0000
