data_image0
_chemical_formula_structural       NC9NC3OH6C7NH5C6H6Zn2C4O8
_chemical_formula_sum              "N3 C29 O9 H17 Zn2"
_cell_length_a       15.78231758774541
_cell_length_b       10.302819778424748
_cell_length_c       10.681121600428288
_cell_angle_alpha    85.56070795582023
_cell_angle_beta     90.08384876913414
_cell_angle_gamma    89.6314472413266

_space_group_name_H-M_alt    "P 1"
_space_group_IT_number       1

loop_
  _space_group_symop_operation_xyz
  'x, y, z'

loop_
  _atom_site_type_symbol
  _atom_site_label
  _atom_site_symmetry_multiplicity
  _atom_site_fract_x
  _atom_site_fract_y
  _atom_site_fract_z
  _atom_site_occupancy
  N   N1        1.0  0.7978583727739915  0.412841935598397  0.6210055881605892  1.0000
  C   C1        1.0  0.7493272993748632  0.3308033567317501  0.6442249748470594  1.0000
  C   C2        1.0  0.6890741685813083  0.22897353907924312  0.6730462155546064  1.0000
  C   C3        1.0  0.708738260263491  0.10105887849313855  0.7091737655415036  1.0000
  C   C4        1.0  0.6320084095329747  0.039066426639647434  0.7267544783280415  1.0000
  C   C5        1.0  0.5702266434910265  0.1337379151781075  0.700055762104232  1.0000
  C   C6        1.0  0.4771358681716067  0.11623460387459428  0.7050804345880903  1.0000
  C   C7        1.0  0.42338950400432573  0.223556602395659  0.6746549571592539  1.0000
  C   C8        1.0  0.33518318727047214  0.2092043067589464  0.6787819730172946  1.0000
  C   C9        1.0  0.2807402889661243  0.31964889449957723  0.6474632987114373  1.0000
  N   N2        1.0  0.23698109365946524  0.4084320937533701  0.6222858836837142  1.0000
  C   C10       1.0  0.3000419493631917  0.0873702788623949  0.7133817096613286  1.0000
  C   C11       1.0  0.3528573784547761  0.9802701655568442  0.7437484847106515  1.0000
  C   C12       1.0  0.4408780375797944  0.9942281806104831  0.7397336181413732  1.0000
  O   O1        1.0  0.6066837464444328  0.24593593514400514  0.668320335539724  1.0000
  H   H1        1.0  0.7711991741780342  0.057921466065864236  0.7213082383604708  1.0000
  H   H2        1.0  0.6232774626420812  0.9371345743852477  0.7555582558291447  1.0000
  H   H3        1.0  0.44999385580021867  0.3183650790457164  0.6477256740965964  1.0000
  H   H4        1.0  0.23192580165798224  0.07521463029593156  0.7168750308747256  1.0000
  H   H5        1.0  0.3255227033250682  0.8861098488565495  0.7704940736812886  1.0000
  H   H6        1.0  0.47996546857942823  0.9093973485239973  0.7637941976859  1.0000
  C   C13       1.0  0.01742376993090966  0.029383951204481118  0.6216511296540923  1.0000
  C   C14       1.0  0.9679659082976897  0.01998163705899003  0.7311687065784014  1.0000
  C   C15       1.0  0.9433601348010963  0.8982013170954459  0.785654736817279  1.0000
  C   C16       1.0  0.967965976683494  0.7846806265615709  0.7311687108817491  1.0000
  C   C17       1.0  0.017423783897451584  0.7918799782465054  0.6216511669156686  1.0000
  C   C18       1.0  0.04189432414255956  0.9147390655911625  0.5674646016447509  1.0000
  C   C19       1.0  0.8926586582041831  0.8896916746214338  0.8979263466744247  1.0000
  N   N3        1.0  0.8519112617061774  0.8828527368666041  0.9881558935603416  1.0000
  H   H7        1.0  0.036157201217119406  0.3602677497353757  0.5801680007106094  1.0000
  H   H8        1.0  0.948460279017709  0.10713214135051818  0.7743610162755543  1.0000
  H   H9        1.0  0.9484603847690589  0.6909825361641742  0.7743609868336621  1.0000
  H   H10       1.0  0.08003447937614272  0.9211403538637627  0.48300858966217963  1.0000
  H   H11       1.0  0.03615727894902321  0.46728466836783933  0.5801680961160198  1.0000
  C   C20       1.0  0.017423794125614567  0.4106319705033874  0.25390592635588294  1.0000
  C   C21       1.0  0.9567760591252354  0.3390349891624522  0.19230660873569638  1.0000
  C   C22       1.0  0.9567760062227848  0.3390350729411009  0.061424468628567874  1.0000
  C   C23       1.0  0.01742372751503063  0.41063203481426025  0.9893963618380242  1.0000
  C   C24       1.0  0.07802140562785187  0.48216968167142915  0.05099495316148617  1.0000
  C   C25       1.0  0.07802139478705694  0.48216966164852426  0.18188725179292353  1.0000
  H   H12       1.0  0.07875473087889295  0.4830361971773842  0.5473424907526094  1.0000
  H   H13       1.0  0.9092375013368179  0.2829138913300262  0.2452048361338075  1.0000
  H   H14       1.0  0.9092374836405863  0.282913952620373  0.016700806856684514  1.0000
  H   H15       1.0  0.1255661713511329  0.5382981753863005  0.9981410792314636  1.0000
  H   H16       1.0  0.12556612865979333  0.5382981303027432  0.2265654465913971  1.0000
  H   H17       1.0  0.07875499533071251  0.4830357421926519  0.6854134658101709  1.0000
  Zn  Zn1       1.0  0.9245797008031648  0.411565882577428  0.6213822795689599  1.0000
  Zn  Zn2       1.0  0.11025973713698378  0.40969755052530554  0.6219194293457562  1.0000
  C   C26       1.0  0.017421872198060573  0.405459911405025  0.8503729309885506  1.0000
  C   C27       1.0  0.017419593362329122  0.4158051394172355  0.3929289067048811  1.0000
  C   C28       1.0  0.01741941774824607  0.6477520796423593  0.6166608582541377  1.0000
  C   C29       1.0  0.017421984452499206  0.17351141198899156  0.6266410460211125  1.0000
  O   O2        1.0  0.08788278965675622  0.4168266158655727  0.43979013444116455  1.0000
  O   O3        1.0  0.08788552713742148  0.4030194347345806  0.8039190270129044  1.0000
  O   O4        1.0  0.08788259524149478  0.5986734343469338  0.6151948719802882  1.0000
  O   O5        1.0  0.08788565819266925  0.22117262617814926  0.6285141953943474  1.0000
  O   O6        1.0  0.9469537163839955  0.6000908075635671  0.6147875133304785  1.0000
  O   O7        1.0  0.9469566482760833  0.40443836778110787  0.8035116015913868  1.0000
  O   O8        1.0  0.9469539108518478  0.4182455036692474  0.43938120339722286  1.0000
  O   O9        1.0  0.9469567793842915  0.22259150469587796  0.6281053582399494  1.0000
