data_image0
_chemical_formula_structural       NC9NC3OH6C6SCH8C6NH7Zn2C4O8
_chemical_formula_sum              "N3 C29 O9 H21 S1 Zn2"
_cell_length_a       15.78231758774541
_cell_length_b       10.302809429070853
_cell_length_c       9.274774538082514
_cell_angle_alpha    85.06361174280542
_cell_angle_beta     90.43038941912484
_cell_angle_gamma    89.63144148246117

_space_group_name_H-M_alt    "P 1"
_space_group_IT_number       1

loop_
  _space_group_symop_operation_xyz
  'x, y, z'

loop_
  _atom_site_type_symbol
  _atom_site_label
  _atom_site_symmetry_multiplicity
  _atom_site_fract_x
  _atom_site_fract_y
  _atom_site_fract_z
  _atom_site_occupancy
  N   N1        1.0  0.7921559197121816  0.4253526041068658  0.4107272888238527  1.0000
  C   C1        1.0  0.743720867580714  0.34310331246337733  0.4374873319342456  1.0000
  C   C2        1.0  0.6835869239174575  0.2410119459717337  0.47070343941542014  1.0000
  C   C3        1.0  0.7034004172013487  0.11276943250844562  0.5123399739687011  1.0000
  C   C4        1.0  0.6267432696029408  0.05061743820272202  0.53260151825465  1.0000
  C   C5        1.0  0.5648510938790012  0.14553121430600724  0.5018315927611583  1.0000
  C   C6        1.0  0.4717810975337707  0.1279823050370279  0.5076224628307491  1.0000
  C   C7        1.0  0.4179089121000388  0.23558041044844336  0.47255749328545815  1.0000
  C   C8        1.0  0.32971966217964427  0.2211906629371534  0.4773138256966456  1.0000
  C   C9        1.0  0.27514724889176567  0.3319194631745248  0.4412194582977482  1.0000
  N   N2        1.0  0.23128393511407142  0.4209311438696828  0.41220281285262894  1.0000
  C   C10       1.0  0.2947215077216019  0.09904264755594006  0.5171895750106599  1.0000
  C   C11       1.0  0.34766251532132203  0.9916669600908754  0.5521868908199123  1.0000
  C   C12       1.0  0.4356665714140305  0.0056614092815441275  0.5475598090145062  1.0000
  O   O1        1.0  0.6011769583962501  0.2580172290244689  0.465256923726576  1.0000
  H   H1        1.0  0.7659115119361188  0.06952190112190038  0.526324797128721  1.0000
  H   H2        1.0  0.6181314376360025  0.9484241954188886  0.5657974996410899  1.0000
  H   H3        1.0  0.4444019007746177  0.33063326633685874  0.4415218425932146  1.0000
  H   H4        1.0  0.22661980625684844  0.08685529776459244  0.5212155825390994  1.0000
  H   H5        1.0  0.3204384436658934  0.897263931150248  0.5830108364449684  1.0000
  H   H6        1.0  0.474853502331672  0.9206122308903173  0.5752893159962487  1.0000
  C   C13       1.0  0.011724011723709182  0.0418883738496989  0.41147132532106223  1.0000
  C   C14       1.0  0.06014896231840261  0.05005982751046645  0.2846428835265764  1.0000
  C   C15       1.0  0.08401051212537114  0.9371502785603517  0.22137281575973544  1.0000
  C   C16       1.0  0.06014885519955793  0.8149086712761159  0.2846428056041157  1.0000
  C   C17       1.0  0.011723977923386197  0.8043852356184672  0.4114713176309772  1.0000
  C   C18       1.0  0.9877261137247383  0.918511162411994  0.47423832117529274  1.0000
  S   S1        1.0  0.14603746615214397  0.9490782290072632  0.05949989316536519  1.0000
  C   C19       1.0  0.05378805080258098  0.9592382016945277  0.9400847655090239  1.0000
  H   H7        1.0  0.993447012455669  0.36612479123532515  0.45923570267024516  1.0000
  H   H8        1.0  0.07938282006606157  0.1438723702482545  0.23426466067230978  1.0000
  H   H9        1.0  0.0793826326784286  0.7285219795281568  0.23426454757718496  1.0000
  H   H10       1.0  0.9503599162479645  0.9113023840633886  0.572051869317199  1.0000
  H   H11       1.0  0.9934456226945015  0.47310904968434286  0.45923411097070366  1.0000
  H   H12       1.0  0.014972934108454794  0.8700230698063076  0.9591992640220113  1.0000
  H   H13       1.0  0.014973725752989164  0.04625802761167819  0.9591987420487342  1.0000
  H   H14       1.0  0.07525758170844621  0.9678572459431118  0.8260817821493371  1.0000
  C   C20       1.0  0.010203326224428988  0.4264726971775463  0.9876498709383603  1.0000
  C   C21       1.0  0.07024379402646153  0.5024831467398692  0.054588112642427467  1.0000
  C   C22       1.0  0.13408565980855203  0.5677607099154265  0.974037701840202  1.0000
  C   C23       1.0  0.1384041199838586  0.5573215900427206  0.8250747977426345  1.0000
  C   C24       1.0  0.07863550229327809  0.4841684218316451  0.7564349066741514  1.0000
  C   C25       1.0  0.013244650273008363  0.4198008646597202  0.8352927168623165  1.0000
  N   N3        1.0  0.1950988732593577  0.6435807437769112  0.04398445717874622  1.0000
  H   H15       1.0  0.8835476001906852  0.17395365930739626  0.11314463667585906  1.0000
  H   H16       1.0  0.06871855080561362  0.5086559727948075  0.170603116595887  1.0000
  H   H17       1.0  0.18769483644555596  0.6069862997663846  0.7617096420002878  1.0000
  H   H18       1.0  0.08241393084475068  0.480519011865842  0.640274553138092  1.0000
  H   H19       1.0  0.9253352435449864  0.2536990072738803  0.5689155692826908  1.0000
  H   H20       1.0  0.19263830586024944  0.6517470940017542  0.15534611176721214  1.0000
  H   H21       1.0  0.24316657876521663  0.6922368103979395  0.9849038767883092  1.0000
  Zn  Zn1       1.0  0.9188788055043791  0.4240731327183913  0.4111614207959269  1.0000
  Zn  Zn2       1.0  0.10456106316116931  0.42219992613510926  0.4117804789680104  1.0000
  C   C26       1.0  0.012667889755305639  0.4158899191448866  0.6750700647490138  1.0000
  C   C27       1.0  0.010774007062896551  0.43038475626159967  0.14787198343041275  1.0000
  C   C28       1.0  0.011698982959167603  0.6603023992785888  0.40572001018773607  1.0000
  C   C29       1.0  0.011742850774819624  0.18597071633142104  0.417222114726578  1.0000
  O   O2        1.0  0.08143098185534536  0.43098114286574973  0.20187891738032082  1.0000
  O   O3        1.0  0.0829394506387593  0.41387083593138585  0.621532566166636  1.0000
  O   O4        1.0  0.08215610162391207  0.6112370024279237  0.4040304882449688  1.0000
  O   O5        1.0  0.08221426712114455  0.23361498714757145  0.4193808868767066  1.0000
  O   O6        1.0  0.9412255381801347  0.6126580723466359  0.40356101266838484  1.0000
  O   O7        1.0  0.9420088869149275  0.4152934662872818  0.6210630136363193  1.0000
  O   O8        1.0  0.9405004119619605  0.4324037416366562  0.20140762964043657  1.0000
  O   O9        1.0  0.9412836976125386  0.23503757578082518  0.41890970734325816  1.0000
