data_image0
_chemical_formula_structural       NC9NC3OH6C6OCH8C6H6Zn2C4O8
_chemical_formula_sum              "N2 C29 O10 H20 Zn2"
_cell_length_a       15.78231758774541
_cell_length_b       9.273888216677433
_cell_length_c       10.681121600428288
_cell_angle_alpha    85.7605498729626
_cell_angle_beta     90.08384876913414
_cell_angle_gamma    89.05820199757643

_space_group_name_H-M_alt    "P 1"
_space_group_IT_number       1

loop_
  _space_group_symop_operation_xyz
  'x, y, z'

loop_
  _atom_site_type_symbol
  _atom_site_label
  _atom_site_symmetry_multiplicity
  _atom_site_fract_x
  _atom_site_fract_y
  _atom_site_fract_z
  _atom_site_occupancy
  N   N1        1.0  0.7886381869052838  0.569362587845734  0.6257403071082444  1.0000
  C   C1        1.0  0.7406424960754977  0.47823542550055786  0.6486847659319355  1.0000
  C   C2        1.0  0.6810539051869925  0.36512446657130426  0.6771647543345163  1.0000
  C   C3        1.0  0.7015527660788227  0.22303887461455507  0.7128636364344403  1.0000
  C   C4        1.0  0.6252274771850869  0.15417863468510307  0.7302365999823646  1.0000
  C   C5        1.0  0.5628278863894999  0.25933823428673763  0.7038551470555254  1.0000
  C   C6        1.0  0.46985133742440194  0.23989583154441174  0.7088211624047196  1.0000
  C   C7        1.0  0.4154045914598137  0.3591074185507517  0.6787553426892441  1.0000
  C   C8        1.0  0.3272919375979904  0.34316511442285336  0.6828342611031326  1.0000
  C   C9        1.0  0.2721282795246243  0.4658452243933857  0.6518857089383767  1.0000
  N   N2        1.0  0.22778968635433103  0.5644642049229682  0.6270058243598484  1.0000
  C   C10       1.0  0.29294578678009753  0.2078337935653507  0.7170257072896022  1.0000
  C   C11       1.0  0.3464601496493084  0.08886867316454539  0.7470335682077784  1.0000
  C   C12       1.0  0.4343897189716316  0.10437301662564957  0.74306547776871  1.0000
  O   O1        1.0  0.5985527867007554  0.38396602917893197  0.6724957187379814  1.0000
  H   H1        1.0  0.7642951941178077  0.17512251575367288  0.7248535470636639  1.0000
  H   H2        1.0  0.617161736075567  0.040954337325809  0.758698783239923  1.0000
  H   H3        1.0  0.44139022451964893  0.46441918239093516  0.6521437819984122  1.0000
  H   H4        1.0  0.22490896666017102  0.1943314904339477  0.7204782924672564  1.0000
  H   H5        1.0  0.31973996337327787  0.9842768751963169  0.7734636069216141  1.0000
  H   H6        1.0  0.4740307547444019  0.010144263346204552  0.7668417720454337  1.0000
  C   C13       1.0  0.010706025276515208  0.1434234933470524  0.6251008033758141  1.0000
  C   C14       1.0  0.9909185364604018  0.22690697768668477  0.513190411388404  1.0000
  C   C15       1.0  0.9639222118923085  0.162483450173724  0.40617225172542337  1.0000
  C   C16       1.0  0.9565566654992607  0.011584722501096989  0.4106618775327082  1.0000
  C   C17       1.0  0.9772308765403438  0.9268962433001594  0.5201659783743167  1.0000
  C   C18       1.0  0.005729979339120561  0.9903921313438915  0.6276561347977929  1.0000
  O   O2        1.0  0.9446482965903444  0.2521283076724128  0.2979449954412374  1.0000
  C   C19       1.0  0.9163670394536406  0.2015191388586064  0.18261999184223598  1.0000
  H   H7        1.0  0.01760744284121718  0.22003112137322822  0.9332906456807097  1.0000
  H   H8        1.0  0.9944974045623792  0.3437426275222346  0.5094888869885188  1.0000
  H   H9        1.0  0.9356413823092473  0.9583810556047319  0.32961057789323256  1.0000
  H   H10       1.0  0.9728276373212082  0.8104769391814247  0.519736300946344  1.0000
  H   H11       1.0  0.013928924343995286  0.691370047842561  0.8343764155059055  1.0000
  H   H12       1.0  0.855560028886666  0.1440733736017441  0.19687718746988114  1.0000
  H   H13       1.0  0.9650157997636064  0.12836819569271007  0.14521020027784526  1.0000
  H   H14       1.0  0.9060613701561486  0.29531949545607783  0.11335558032611992  1.0000
  C   C20       1.0  0.008218030456889514  0.566907793396924  0.25863323926373605  1.0000
  C   C21       1.0  0.9480375363126663  0.48737899326149803  0.19679398568496165  1.0000
  C   C22       1.0  0.9480374828634773  0.4873790863215024  0.065911845858593  1.0000
  C   C23       1.0  0.008217963426613961  0.5669078648324286  0.9941236749613962  1.0000
  C   C24       1.0  0.06834878789925525  0.6463707571570472  0.05596200340159485  1.0000
  C   C25       1.0  0.06834877718912957  0.6463707349159196  0.186854301965931  1.0000
  H   H15       1.0  0.06907645828274056  0.647333268944509  0.5523124448613541  1.0000
  H   H16       1.0  0.9008652239903079  0.4250405609798025  0.24950413993874254  1.0000
  H   H17       1.0  0.9008652058940961  0.4250406290601554  0.021000110867016142  1.0000
  H   H18       1.0  0.11552725989105617  0.7087174046685718  0.00329622740100044  1.0000
  H   H19       1.0  0.11552721749393124  0.7087173545904664  0.2317205946098495  1.0000
  H   H20       1.0  0.06907672570378387  0.6473327635546289  0.6903834183941697  1.0000
  Zn  Zn1       1.0  0.9153678424378635  0.5679451682315797  0.6261127222049736  1.0000
  Zn  Zn2       1.0  0.10106007147940965  0.5658698543904512  0.6266436108233591  1.0000
  C   C26       1.0  0.00824986131158889  0.5611627515443407  0.8550829112807765  1.0000
  C   C27       1.0  0.008180069668710654  0.5726540680150822  0.39767355594757703  1.0000
  C   C28       1.0  0.006666211705123937  0.830297079015055  0.6221828085841412  1.0000
  C   C29       1.0  0.00976366609078827  0.3035180086196432  0.6305737200008668  1.0000
  O   O3        1.0  0.07863659982273208  0.5737887079786868  0.4445382068579413  1.0000
  O   O4        1.0  0.07872944276611293  0.5584519084651511  0.8086208287744385  1.0000
  O   O5        1.0  0.07744967572187322  0.775781292182772  0.6205523498481216  1.0000
  O   O6        1.0  0.07991630344218814  0.35645933528552165  0.6326065917380854  1.0000
  O   O7        1.0  0.9365115471074316  0.7773556880462822  0.6201497411024983  1.0000
  O   O8        1.0  0.9377913039684046  0.5600280369631587  0.8082181584844128  1.0000
  O   O9        1.0  0.9376984613767083  0.5753647862216464  0.4441340307938737  1.0000
  O   O10       1.0  0.9389781650532945  0.3580354032137987  0.6322025095324424  1.0000
