data_image0
_chemical_formula_structural       NC9NC3OH6C6NH7C7NH5Zn2C4O8
_chemical_formula_sum              "N4 C29 O9 H18 Zn2"
_cell_length_a       15.78231758774541
_cell_length_b       9.274771166103582
_cell_length_c       10.302823150593486
_cell_angle_alpha    85.45577553533455
_cell_angle_beta     90.08385050025007
_cell_angle_gamma    90.23039320205511

_space_group_name_H-M_alt    "P 1"
_space_group_IT_number       1

loop_
  _space_group_symop_operation_xyz
  'x, y, z'

loop_
  _atom_site_type_symbol
  _atom_site_label
  _atom_site_symmetry_multiplicity
  _atom_site_fract_x
  _atom_site_fract_y
  _atom_site_fract_z
  _atom_site_occupancy
  N   N1        1.0  0.8074978031132113  0.5696505202693471  0.5677993758233217  1.0000
  C   C1        1.0  0.7584070019983766  0.47850664470246107  0.5920206987121261  1.0000
  C   C2        1.0  0.697459113055518  0.3653749406025144  0.6220855981944462  1.0000
  C   C3        1.0  0.7162504765421299  0.2232632893763764  0.6597725724183765  1.0000
  C   C4        1.0  0.6390976675657692  0.15439042009732384  0.6781116828084046  1.0000
  C   C5        1.0  0.5779618202722151  0.25956930653658805  0.6502602757519813  1.0000
  C   C6        1.0  0.48475162445001085  0.2401233379434753  0.6555013122478888  1.0000
  C   C7        1.0  0.4317374901412189  0.3593567890144018  0.6237632721280315  1.0000
  C   C8        1.0  0.3434332514582615  0.3434115609736237  0.6280679548219561  1.0000
  C   C9        1.0  0.28974388761981434  0.4661141711558787  0.5953982361578831  1.0000
  N   N2        1.0  0.2465904368045466  0.5647512389528939  0.5691347101876214  1.0000
  C   C10       1.0  0.3074607719220069  0.2080554195968558  0.6641599464998844  1.0000
  C   C11       1.0  0.35954548501983924  0.08906848033436154  0.6958367248220096  1.0000
  C   C12       1.0  0.44766137602092193  0.10457566738389734  0.6916490271768385  1.0000
  O   O1        1.0  0.6151844209015082  0.3842199588482669  0.6171553100604352  1.0000
  H   H1        1.0  0.7784170751994267  0.1753381424001359  0.672431138639018  1.0000
  H   H2        1.0  0.6296712663692969  0.04114535678530795  0.7081586636459716  1.0000
  H   H3        1.0  0.4589886953156017  0.4646878676200916  0.5956725828767067  1.0000
  H   H4        1.0  0.2392616894145212  0.19455064006340295  0.6678036671380263  1.0000
  H   H5        1.0  0.3315683787370466  0.9844574996463452  0.7237357950037764  1.0000
  H   H6        1.0  0.48617002849419877  0.010329632028603042  0.7167475136659629  1.0000
  C   C13       1.0  0.024446964793023662  0.14363331752039987  0.5691667837368997  1.0000
  C   C14       1.0  0.004950364366185012  0.22715960978807792  0.4530077163251498  1.0000
  C   C15       1.0  0.993364364244149  0.16223950096365614  0.33613610293371265  1.0000
  C   C16       1.0  0.0013193829768578524  0.012415131290261838  0.3345774352225448  1.0000
  C   C17       1.0  0.01924924522667748  0.9275868921569449  0.44913686657253216  1.0000
  C   C18       1.0  0.02964930373412611  0.9907573102897003  0.5677785825253285  1.0000
  N   N3        1.0  0.9743883190463561  0.2488594830626496  0.21870261475357777  1.0000
  H   H7        1.0  0.11979952558952123  0.2222297098205226  0.8535886303889066  1.0000
  H   H8        1.0  0.0006783451861966938  0.3437999837239214  0.4524960194355403  1.0000
  H   H9        1.0  0.9928061319529262  0.9610228998058921  0.2446577394198861  1.0000
  H   H10       1.0  0.022983150162078303  0.8113812152262293  0.44543001446104125  1.0000
  H   H11       1.0  0.09043904637418176  0.6930127185965995  0.7612737237773084  1.0000
  H   H12       1.0  0.9685507616954034  0.36099851790874826  0.21864269443980477  1.0000
  H   H13       1.0  0.9659548306102329  0.20148356927043376  0.13091824637280847  1.0000
  C   C19       1.0  0.027048139021671025  0.5671953141730266  0.18722459132195213  1.0000
  C   C20       1.0  0.9383267591355461  0.5786403794694943  0.18510799828425517  1.0000
  C   C21       1.0  0.8941870356112537  0.5843342889343586  0.06695246574169111  1.0000
  C   C22       1.0  0.938326742082143  0.5786402854688668  0.9498070045399514  1.0000
  C   C23       1.0  0.027048138469758287  0.5671953066852431  0.9497207579476208  1.0000
  C   C24       1.0  0.07094526804106249  0.5615325400303601  0.06897493185468062  1.0000
  C   C25       1.0  0.8032346426917791  0.5960669246407093  0.06591174364227803  1.0000
  N   N4        1.0  0.7301386376290362  0.6054963066667278  0.0650753081484654  1.0000
  H   H14       1.0  0.0606539553349692  0.562860521467859  0.5153485385879584  1.0000
  H   H15       1.0  0.9033361763287845  0.5831541661629625  0.27513187936973127  1.0000
  H   H16       1.0  0.903336209279404  0.583154059587268  0.8589823431482184  1.0000
  H   H17       1.0  0.139364000579687  0.5527065425122899  0.06975782913782536  1.0000
  H   H18       1.0  0.06065392552590221  0.562860290242422  0.6223658385734696  1.0000
  Zn  Zn1       1.0  0.9342104249674767  0.5682328406910273  0.5681922218820912  1.0000
  Zn  Zn2       1.0  0.11987771416169024  0.5661571462250734  0.5687524963761181  1.0000
  C   C26       1.0  0.027010941514196807  0.5614491562309558  0.8056020573585163  1.0000
  C   C27       1.0  0.027079236272498974  0.5729426279520438  0.33134279146151124  1.0000
  C   C28       1.0  0.028661579670040016  0.8306328617376049  0.5628674145254329  1.0000
  C   C29       1.0  0.025428524119053053  0.3037571902030647  0.5740775061599859  1.0000
  O   O2        1.0  0.09754940278571178  0.5740774710686596  0.37992280752707774  1.0000
  O   O3        1.0  0.09745794476838898  0.5587378209138543  0.7574469047256425  1.0000
  O   O4        1.0  0.098789906122978  0.7761070780217734  0.5614369579260199  1.0000
  O   O5        1.0  0.09621737813882203  0.35670822498722776  0.5759326567747931  1.0000
  O   O6        1.0  0.9578706976312208  0.777681762638776  0.5610120612853906  1.0000
  O   O7        1.0  0.9565387469151103  0.5603142384830895  0.7570219360215968  1.0000
  O   O8        1.0  0.9566302046801527  0.5756538383737893  0.3794962779996154  1.0000
  O   O9        1.0  0.9552981799664394  0.3582845819757736  0.575506224601213  1.0000
