data_image0
_chemical_formula_structural       NC9NC3OH6C9H8C6ClH5Zn2C4O8
_chemical_formula_sum              "N2 C31 O9 H19 Cl1 Zn2"
_cell_length_a       15.78231758774541
_cell_length_b       9.275152443626249
_cell_length_c       10.302974078461048
_cell_angle_alpha    85.36323094855369
_cell_angle_beta     90.08385130592438
_cell_angle_gamma    90.20707041648352

_space_group_name_H-M_alt    "P 1"
_space_group_IT_number       1

loop_
  _space_group_symop_operation_xyz
  'x, y, z'

loop_
  _atom_site_type_symbol
  _atom_site_label
  _atom_site_symmetry_multiplicity
  _atom_site_fract_x
  _atom_site_fract_y
  _atom_site_fract_z
  _atom_site_occupancy
  N   N1        1.0  0.8071205462224929  0.5697871761690922  0.565529898141365  1.0000
  C   C1        1.0  0.758051650497312  0.47863536562715403  0.5898838647326474  1.0000
  C   C2        1.0  0.6971309514676034  0.3654938122943956  0.6201134072865782  1.0000
  C   C3        1.0  0.7159564698659863  0.2233697888448496  0.6580072009031335  1.0000
  C   C4        1.0  0.6388202136975802  0.15449092350184102  0.6764465429752333  1.0000
  C   C5        1.0  0.5776590878606996  0.2596789668023214  0.6484420652934888  1.0000
  C   C6        1.0  0.48445356565565156  0.2402313052453111  0.6537114008647169  1.0000
  C   C7        1.0  0.4314107749480317  0.3594751367665381  0.6217998384216823  1.0000
  C   C8        1.0  0.34311036851916094  0.3435285205359342  0.6261277255740538  1.0000
  C   C9        1.0  0.289391514509021  0.46624181319309477  0.5932794359855575  1.0000
  N   N2        1.0  0.24621435740044992  0.5648874683217098  0.5668723620496963  1.0000
  C   C10       1.0  0.3071704202868688  0.2081605950691925  0.6624167022674874  1.0000
  C   C11       1.0  0.35928373053727  0.08916329681767765  0.6942666440964591  1.0000
  C   C12       1.0  0.4473958945624212  0.10467183392124002  0.6900563794751609  1.0000
  O   O1        1.0  0.6148517301293764  0.384340471185036  0.6151556924409562  1.0000
  H   H1        1.0  0.7781345867843561  0.17544046951114423  0.6707355147871565  1.0000
  H   H2        1.0  0.6294210296584092  0.041236001088083896  0.7066583325623657  1.0000
  H   H3        1.0  0.45863666499961464  0.46481538548372847  0.5935558599691271  1.0000
  H   H4        1.0  0.2389745834994262  0.1946546398111022  0.6660800759071637  1.0000
  H   H5        1.0  0.3313317663099636  0.9845432087098006  0.7223179555087198  1.0000
  H   H6        1.0  0.48592719799451545  0.010417593517108026  0.7152920235356499  1.0000
  C   C13       1.0  0.02417209524580821  0.14373288466734047  0.5675189367390432  1.0000
  C   C14       1.0  0.9936075825549069  0.22681334557558186  0.4571301841933253  1.0000
  C   C15       1.0  0.970918799807188  0.1616251783776097  0.3447005068988249  1.0000
  C   C16       1.0  0.9784382733161631  0.012199332296852106  0.3404337919743068  1.0000
  C   C17       1.0  0.007345967404046361  0.9274492124097419  0.449885340870553  1.0000
  C   C18       1.0  0.029170833694007747  0.990930624328041  0.5648945596775572  1.0000
  C   C19       1.0  0.9554833377967565  0.9453059719849973  0.22400744342399004  1.0000
  C   C20       1.0  0.9362639433319089  0.8892650823321987  0.12651863626614546  1.0000
  C   C21       1.0  0.9129450071463934  0.8212573709657238  0.008233067698701024  1.0000
  H   H7        1.0  0.14591714402957812  0.22402581773474584  0.8271729219953481  1.0000
  H   H8        1.0  0.9891444395777993  0.3433806341239658  0.45670816154823  1.0000
  H   H9        1.0  0.9482658800424327  0.22811772062687452  0.26054801804745886  1.0000
  H   H10       1.0  0.010913247448646857  0.8110993766145983  0.4462745247240003  1.0000
  H   H11       1.0  0.10842205558925433  0.6947468850631168  0.7424768827240875  1.0000
  H   H12       1.0  0.9284339581795003  0.7043627060569915  0.020409156717827726  1.0000
  H   H13       1.0  0.8439849229132547  0.8346094367122441  0.9902488719087343  1.0000
  H   H14       1.0  0.9487257371864489  0.8732066427104697  0.9243066353351228  1.0000
  C   C22       1.0  0.02667146871397663  0.5673317571906267  0.18496427126806858  1.0000
  C   C23       1.0  0.011049479600739875  0.41767256430566246  0.1946169867364036  1.0000
  C   C24       1.0  0.003298318110216414  0.3434157485754561  0.0824496098324119  1.0000
  C   C25       1.0  0.011049517975190382  0.4176726453495805  0.9595090876287924  1.0000
  C   C26       1.0  0.026671466113474818  0.5673316827537291  0.9474492905655372  1.0000
  C   C27       1.0  0.03440632582658476  0.6414317845351334  0.06083158901412111  1.0000
  Cl  Cl1       1.0  0.983782745215045  0.15645586278245105  0.09601168736921162  1.0000
  H   H15       1.0  0.03255649091976953  0.6237057865838556  0.508631200538953  1.0000
  H   H16       1.0  0.004836261249472118  0.3581496083198723  0.2889813268395136  1.0000
  H   H17       1.0  0.00483632033418524  0.35814958707573186  0.8737803610103803  1.0000
  H   H18       1.0  0.046454434710971215  0.7568534464834096  0.05245879997585989  1.0000
  H   H19       1.0  0.032556329621946656  0.6237057756176358  0.6156035696042097  1.0000
  Zn  Zn1       1.0  0.933833508800003  0.5683693731677191  0.5659248071448018  1.0000
  Zn  Zn2       1.0  0.11950129686375699  0.5662934979920302  0.566488102316103  1.0000
  C   C28       1.0  0.02663565788948752  0.561585097584554  0.8033410637124463  1.0000
  C   C29       1.0  0.026701185999854493  0.5730795709985628  0.32907197368576524  1.0000
  C   C30       1.0  0.028221599244978357  0.8307922385825537  0.5602171797295139  1.0000
  C   C31       1.0  0.025115171063081698  0.303870697607425  0.5721959320607499  1.0000
  O   O2        1.0  0.09717108021496745  0.5742145128032146  0.3776496221334493  1.0000
  O   O3        1.0  0.09708331233373069  0.5588735263301781  0.7551905729148753  1.0000
  O   O4        1.0  0.09836303020129278  0.7762617078946668  0.558866308928895  1.0000
  O   O5        1.0  0.09589129905245408  0.3568263422661735  0.5739737885528617  1.0000
  O   O6        1.0  0.9574434432520113  0.7778365296035405  0.5584391207089847  1.0000
  O   O7        1.0  0.956163735606436  0.5604500811421551  0.7547633101038542  1.0000
  O   O8        1.0  0.9562515032474586  0.5757910173467133  0.3772207985952225  1.0000
  O   O9        1.0  0.9549717220206015  0.3584028364921894  0.5735450623821443  1.0000
