data_image0
_chemical_formula_structural       NC9NC3OH6C6SCH8C6BrH5Zn2C4O8
_chemical_formula_sum              "N2 C29 O9 H19 S1 Br1 Zn2"
_cell_length_a       15.78231758774541
_cell_length_b       10.302809429070853
_cell_length_c       10.302972455390005
_cell_angle_alpha    85.56069891033053
_cell_angle_beta     90.08385913268748
_cell_angle_gamma    89.63144148246117

_space_group_name_H-M_alt    "P 1"
_space_group_IT_number       1

loop_
  _space_group_symop_operation_xyz
  'x, y, z'

loop_
  _atom_site_type_symbol
  _atom_site_label
  _atom_site_symmetry_multiplicity
  _atom_site_fract_x
  _atom_site_fract_y
  _atom_site_fract_z
  _atom_site_occupancy
  N   N1        1.0  0.7978581108757942  0.41284340256018703  0.5703922733186175  1.0000
  C   C1        1.0  0.7493270457188155  0.3308047398228089  0.5944638905608419  1.0000
  C   C2        1.0  0.6890739251558132  0.22897481806633002  0.6243429689414326  1.0000
  C   C3        1.0  0.7087380296798371  0.10106002671062608  0.661796523067808  1.0000
  C   C4        1.0  0.6320081851817871  0.03906751147941079  0.6800225078607218  1.0000
  C   C5        1.0  0.5702264096402834  0.13373909680142382  0.6523438577929486  1.0000
  C   C6        1.0  0.4771356360880273  0.1162357676020711  0.65755295283213  1.0000
  C   C7        1.0  0.4233892611323129  0.2235578758430916  0.6260107568041768  1.0000
  C   C8        1.0  0.3351829458483368  0.20920556553206082  0.6302892481655915  1.0000
  C   C9        1.0  0.2807400364406865  0.3196502661851899  0.5978210718983772  1.0000
  N   N2        1.0  0.2369808322082525  0.40843355620609234  0.5717195600313438  1.0000
  C   C10       1.0  0.3000417201956646  0.08737141307788732  0.6661589129032037  1.0000
  C   C11       1.0  0.3528571600538923  0.9802711902791267  0.697640251972437  1.0000
  C   C12       1.0  0.44087781776871304  0.9942292196039851  0.6934780261602915  1.0000
  O   O1        1.0  0.6066835013239679  0.2459372314705779  0.619443633001473  1.0000
  H   H1        1.0  0.7711989479191029  0.05792257018428115  0.6743763723946374  1.0000
  H   H2        1.0  0.62327724852602  0.9371355550177941  0.7098834820982429  1.0000
  H   H3        1.0  0.4499936033913898  0.3183664494211704  0.5980930774026467  1.0000
  H   H4        1.0  0.23192557371817552  0.0752157520830865  0.6697804508745406  1.0000
  H   H5        1.0  0.3255224943958518  0.886110777313452  0.7253674950833915  1.0000
  H   H6        1.0  0.47996525729726147  0.9093983007909828  0.718421710878081  1.0000
  C   C13       1.0  0.017423533340232833  0.029385028631160992  0.571061560797012  1.0000
  C   C14       1.0  0.06630353486168605  0.03655821275070914  0.4569748347887521  1.0000
  C   C15       1.0  0.09039209292142614  0.9231506636625425  0.4000611426885514  1.0000
  C   C16       1.0  0.06630342802242106  0.8014070559030291  0.45697476469470755  1.0000
  C   C17       1.0  0.01742349956750089  0.7918818903394003  0.5710615538795047  1.0000
  C   C18       1.0  0.9932004320727417  0.9065018576410763  0.6275227216932933  1.0000
  S   S1        1.0  0.15299983484089652  0.9338045086652197  0.2544506510126765  1.0000
  C   C19       1.0  0.061178872003564644  0.9430245621749445  0.14703246659434033  1.0000
  H   H7        1.0  0.9989751590724578  0.3539974005139679  0.6140273289992373  1.0000
  H   H8        1.0  0.08571814589050208  0.12997422735407715  0.41165781893460296  1.0000
  H   H9        1.0  0.08571795890864609  0.7146238357438051  0.41165771720148747  1.0000
  H   H10       1.0  0.9554832869291678  0.9000629719478336  0.7155095116346528  1.0000
  H   H11       1.0  0.9989737750221888  0.460981646434682  0.61402589720849  1.0000
  H   H12       1.0  0.02229517392390834  0.8539598809379441  0.16422664263073816  1.0000
  H   H13       1.0  0.022295967441243514  0.030194834634850842  0.1642261730970802  1.0000
  H   H14       1.0  0.08305743705427338  0.9507462863564684  0.044482699817609106  1.0000
  C   C20       1.0  0.017423487398364745  0.410633443681343  0.18981898256734242  1.0000
  C   C21       1.0  0.04212748286497758  0.2790261634833029  0.19884471848740737  1.0000
  C   C22       1.0  0.054382044742746105  0.213741846354357  0.08638413574142545  1.0000
  C   C23       1.0  0.04212762567624284  0.2790261113757102  0.9637623283177406  1.0000
  C   C24       1.0  0.017423527487761437  0.41063344683170766  0.9523040647630099  1.0000
  C   C25       1.0  0.005190782482519918  0.4758015240546758  0.06598999133130823  1.0000
  Br  Br1       1.0  0.0879835606323105  0.034733199382348756  0.10031508384827892  1.0000
  H   H15       1.0  0.00812547671472652  0.46016941354447694  0.5137233261069787  1.0000
  H   H16       1.0  0.05196156501410254  0.22663571482052758  0.2929211715238964  1.0000
  H   H17       1.0  0.05196189982612709  0.226635754951374  0.8778402699065389  1.0000
  H   H18       1.0  0.9861380701987156  0.5773021056434726  0.05809094085827171  1.0000
  H   H19       1.0  0.008124285874645754  0.46016893801362047  0.6206896985210086  1.0000
  Zn  Zn1       1.0  0.9245794390350708  0.41156734823430896  0.5707827905768026  1.0000
  Zn  Zn2       1.0  0.11025947555761872  0.40969901427193656  0.5713396555753971  1.0000
  C   C26       1.0  0.017421638886002233  0.40546136558152956  0.8081780682281297  1.0000
  C   C27       1.0  0.017419303326837277  0.41580661464588364  0.33394451142911863  1.0000
  C   C28       1.0  0.017419139862575372  0.6477537853282245  0.5658880468397385  1.0000
  C   C29       1.0  0.01742173899073074  0.17351263570669384  0.5762346018432891  1.0000
  O   O2        1.0  0.08788250529516528  0.416828091051769  0.38252568288333744  1.0000
  O   O3        1.0  0.08788528829472408  0.40302088750271503  0.7600191707007702  1.0000
  O   O4        1.0  0.08788232040519972  0.5986750902120372  0.5643682613386147  1.0000
  O   O5        1.0  0.08788540982466397  0.22117389826738854  0.5781764947130688  1.0000
  O   O6        1.0  0.9469534414045424  0.6000924648778412  0.5639459512422713  1.0000
  O   O7        1.0  0.9469564092901165  0.40443982199999806  0.759596791381788  1.0000
  O   O8        1.0  0.9469536263468065  0.41824698030618856  0.38210174268119923  1.0000
  O   O9        1.0  0.946956530872847  0.22259277823585055  0.5777526518464955  1.0000
