data_image0
_chemical_formula_structural       NC9NC3OH6C6BrH5C6ClH5Zn2C4O8
_chemical_formula_sum              "N2 C28 O9 H16 Br1 Cl1 Zn2"
_cell_length_a       15.78231758774541
_cell_length_b       10.302969083221269
_cell_length_c       10.302974078461048
_cell_angle_alpha    85.56069307816827
_cell_angle_beta     90.08385130592438
_cell_angle_gamma    89.63144763104107

_space_group_name_H-M_alt    "P 1"
_space_group_IT_number       1

loop_
  _space_group_symop_operation_xyz
  'x, y, z'

loop_
  _atom_site_type_symbol
  _atom_site_label
  _atom_site_symmetry_multiplicity
  _atom_site_fract_x
  _atom_site_fract_y
  _atom_site_fract_z
  _atom_site_occupancy
  N   N1        1.0  0.797858336854395  0.4128216128975324  0.5703924484539451  1.0000
  C   C1        1.0  0.7493272638139306  0.3307842195849757  0.5944640645001522  1.0000
  C   C2        1.0  0.6890741334655747  0.22895587349323687  0.6243431413961416  1.0000
  C   C3        1.0  0.7087382257046732  0.1010430614319886  0.661796693669704  1.0000
  C   C4        1.0  0.632008375246244  0.03905150543906433  0.6800226775533258  1.0000
  C   C5        1.0  0.5702266087933234  0.13372162585372616  0.6523440288505633  1.0000
  C   C6        1.0  0.4771358335525743  0.11621856748685055  0.6575531236234091  1.0000
  C   C7        1.0  0.4233894689145706  0.2235390150834704  0.6260109291679838  1.0000
  C   C8        1.0  0.33518315224543455  0.20918692684806972  0.630289420309919  1.0000
  C   C9        1.0  0.28074025345642667  0.31962991854007283  0.597821245662242  1.0000
  N   N2        1.0  0.23698105776012543  0.4084118347768073  0.5717197350973029  1.0000
  C   C10       1.0  0.3000419148743548  0.08735465958541888  0.666159083252875  1.0000
  C   C11       1.0  0.3528573444358163  0.9802560939974141  0.697640420752168  1.0000
  C   C12       1.0  0.4408780034978575  0.9942139073475063  0.6934781951536662  1.0000
  O   O1        1.0  0.6066837112568194  0.24591802442415744  0.6194438056916358  1.0000
  H   H1        1.0  0.7711991398055391  0.05790627239834434  0.6743765423794372  1.0000
  H   H2        1.0  0.6232774287995881  0.9371211262244276  0.709883650312072  1.0000
  H   H3        1.0  0.4499938202930659  0.3183461216486072  0.5980932511637334  1.0000
  H   H4        1.0  0.23192576722389563  0.07519918667728631  0.6697806210386477  1.0000
  H   H5        1.0  0.32552266972066485  0.8860971380153895  0.7253676624753309  1.0000
  H   H6        1.0  0.47996543486990895  0.9093843011615441  0.7184218786266969  1.0000
  C   C13       1.0  0.01742373241052264  0.02936918033887692  0.5710617473698569  1.0000
  C   C14       1.0  0.10527066067988877  0.025573205370379215  0.5932068364113592  1.0000
  C   C15       1.0  0.14884746539359095  0.9067523468188048  0.6041918241512594  1.0000
  C   C16       1.0  0.10527072720867969  0.7904908451042506  0.5932065902702883  1.0000
  C   C17       1.0  0.01742374543796399  0.7918541975656482  0.5710616613387458  1.0000
  C   C18       1.0  0.9739244920091112  0.9118890861698669  0.5600961129899757  1.0000
  Br  Br1       1.0  0.26833440964821786  0.9032435226846396  0.6343133089394579  1.0000
  H   H7        1.0  0.9843589973120328  0.35809961506496113  0.5627259616883018  1.0000
  H   H8        1.0  0.1402408617221822  0.11454559287454291  0.6020225205087499  1.0000
  H   H9        1.0  0.14024096142683673  0.6994646577365018  0.6020219360004764  1.0000
  H   H10       1.0  0.9061735624646647  0.9138785933495494  0.5430171421826884  1.0000
  H   H11       1.0  0.9843587546518283  0.46506562528043993  0.5627278793767663  1.0000
  C   C19       1.0  0.017423747045236748  0.4106117152412394  0.18981921570992788  1.0000
  C   C20       1.0  0.0026847915045793425  0.27591718754565675  0.1990083490021617  1.0000
  C   C21       1.0  0.9953717672244642  0.20908543113864386  0.08661095524746565  1.0000
  C   C22       1.0  0.002684829400846578  0.2759172604858622  0.9639004501455917  1.0000
  C   C23       1.0  0.017423744883935166  0.4106116482474076  0.9523042347768214  1.0000
  C   C24       1.0  0.02472139204535928  0.4773023607872826  0.06591606464122379  1.0000
  Cl  Cl1       1.0  0.976959313039866  0.04081996725721426  0.0995939085151254  1.0000
  H   H12       1.0  0.02297614577754903  0.4613488140925903  0.5136607683682421  1.0000
  H   H13       1.0  0.9968227762265163  0.2223460283739409  0.29318831164785064  1.0000
  H   H14       1.0  0.9968228354365761  0.22234600925403658  0.8779873457529117  1.0000
  H   H15       1.0  0.03608847893210898  0.5811828237396133  0.05790080409275089  1.0000
  H   H16       1.0  0.02297598454442995  0.4613488042229006  0.6206331373995306  1.0000
  Zn  Zn1       1.0  0.9245796648896186  0.41154557831553285  0.5707829656910757  1.0000
  Zn  Zn2       1.0  0.11025970123186002  0.40967727326220227  0.5713398306611135  1.0000
  C   C25       1.0  0.01742184321479523  0.4054396734404915  0.8081782073836736  1.0000
  C   C26       1.0  0.017419550526934113  0.41578479583333605  0.3339447224734948  1.0000
  C   C27       1.0  0.0174193826893414  0.6477283562137275  0.5658882155916578  1.0000
  C   C28       1.0  0.017421947692739526  0.17349455389175894  0.576234783291327  1.0000
  O   O2        1.0  0.08788274824918862  0.41680625296799456  0.38252588650068686  1.0000
  O   O3        1.0  0.08788549673270674  0.40299923658939996  0.760019317261754  1.0000
  O   O4        1.0  0.08788255993066318  0.5986504216451498  0.5643684317988402  1.0000
  O   O5        1.0  0.08788562169121517  0.22115507783703947  0.5781766744311907  1.0000
  O   O6        1.0  0.9469536810667795  0.6000677743796692  0.563946121724139  1.0000
  O   O7        1.0  0.946956617864988  0.40441814913123486  0.7595969379643772  1.0000
  O   O8        1.0  0.9469538694378541  0.41822512026777825  0.3821019463203925  1.0000
  O   O9        1.0  0.9469567428764137  0.22257393585100238  0.5777528315864475  1.0000
