data_image0
_chemical_formula_structural       NC9NC3OH6C6NCH9C6H6Zn2C4O8
_chemical_formula_sum              "N3 C29 O9 H21 Zn2"
_cell_length_a       15.78231758774541
_cell_length_b       9.273386996610926
_cell_length_c       10.681121600428288
_cell_angle_alpha    85.46621756597041
_cell_angle_beta     90.08384876913414
_cell_angle_gamma    89.03191128213776

_space_group_name_H-M_alt    "P 1"
_space_group_IT_number       1

loop_
  _space_group_symop_operation_xyz
  'x, y, z'

loop_
  _atom_site_type_symbol
  _atom_site_label
  _atom_site_symmetry_multiplicity
  _atom_site_fract_x
  _atom_site_fract_y
  _atom_site_fract_z
  _atom_site_occupancy
  N   N1        1.0  0.7882018741210929  0.5700785388493632  0.6187167953956652  1.0000
  C   C1        1.0  0.7402315183835452  0.47890980384032744  0.6420690839312544  1.0000
  C   C2        1.0  0.6806743745027581  0.3657472431300741  0.6710552881382732  1.0000
  C   C3        1.0  0.7012127379038876  0.22359683102089467  0.7073900588639528  1.0000
  C   C4        1.0  0.6249065934725191  0.15470517670813244  0.7250711989323451  1.0000
  C   C5        1.0  0.5624777662990281  0.2599127506411667  0.698219115645631  1.0000
  C   C6        1.0  0.4695066226933655  0.24046147817818864  0.7032721433554097  1.0000
  C   C7        1.0  0.4150267336298928  0.3597274501023431  0.6726728051375186  1.0000
  C   C8        1.0  0.3269185120332161  0.3437778730161565  0.6768230716010133  1.0000
  C   C9        1.0  0.2717207465453107  0.46651395026189935  0.6453254779362552  1.0000
  N   N2        1.0  0.22735473541418272  0.5651779212599908  0.6200042348277119  1.0000
  C   C10       1.0  0.2926099859082073  0.2083848133382309  0.7116201784069494  1.0000
  C   C11       1.0  0.3461574233538773  0.08936542045889939  0.7421604547930323  1.0000
  C   C12       1.0  0.4340826821724871  0.1048768370784614  0.7381229763497266  1.0000
  O   O1        1.0  0.5981680177021229  0.3845974013521023  0.6663019291758807  1.0000
  H   H1        1.0  0.7639684876061421  0.175658612479221  0.7195944139499828  1.0000
  H   H2        1.0  0.6168723308809666  0.041429225862283925  0.7540401052281682  1.0000
  H   H3        1.0  0.44098308800725844  0.46508725769200754  0.6455899330922985  1.0000
  H   H4        1.0  0.22457691968653093  0.1948763503891069  0.7151331916749146  1.0000
  H   H5        1.0  0.3194663155960479  0.9847259071931951  0.7690585827322378  1.0000
  H   H6        1.0  0.47374991533903543  0.01060509617397476  0.7623209811715124  1.0000
  C   C13       1.0  0.010388131698730652  0.14394512882120947  0.619983535792046  1.0000
  C   C14       1.0  0.025266986132953084  0.22725469100901252  0.5067974844159946  1.0000
  C   C15       1.0  0.03216726537565595  0.1626747991713542  0.3935810436181313  1.0000
  C   C16       1.0  0.024293072408783534  0.012462004320590747  0.39065576161229565  1.0000
  C   C17       1.0  0.010907528661074473  0.9281728635855131  0.503452856283805  1.0000
  C   C18       1.0  0.005176613472625435  0.9913001416969548  0.6187483720038929  1.0000
  N   N3        1.0  0.030477011874309845  0.9428536815905094  0.2750993377343458  1.0000
  C   C19       1.0  0.0445933706520627  0.020592650161825876  0.15293558751812997  1.0000
  H   H7        1.0  0.027700322838972502  0.40589666006287284  0.8256322697343552  1.0000
  H   H8        1.0  0.029589048406904572  0.34385235356304045  0.5052737657814033  1.0000
  H   H9        1.0  0.04285357392153788  0.23115766620279388  0.3085486293760902  1.0000
  H   H10       1.0  0.006907837094965119  0.8118164273789308  0.5014655731796804  1.0000
  H   H11       1.0  0.03637661556532512  0.8595900262347467  0.9238523251845865  1.0000
  H   H12       1.0  0.02448614560166118  0.8305534123358119  0.27767860778095943  1.0000
  H   H13       1.0  0.9920618520254776  0.09975242170615051  0.13102326815241772  1.0000
  H   H14       1.0  0.10592692480948362  0.07745996475166939  0.1533174719582313  1.0000
  H   H15       1.0  0.046729536127133375  0.9431322176087581  0.07880468819099828  1.0000
  C   C20       1.0  0.007782400152457347  0.5676226245111391  0.2516207137169393  1.0000
  C   C21       1.0  0.9476240165341762  0.4880575429422731  0.19013738264043756  1.0000
  C   C22       1.0  0.9476239630591147  0.4880576360447322  0.059255242397588725  1.0000
  C   C23       1.0  0.007782333102321459  0.5676226959792336  0.9871111490948974  1.0000
  C   C24       1.0  0.06789106537265144  0.6471218396698213  0.04859384999606875  1.0000
  C   C25       1.0  0.06789105466870926  0.6471218174185471  0.17948614865994283  1.0000
  H   H16       1.0  0.06861846815946993  0.648084790559939  0.5449399838389235  1.0000
  H   H17       1.0  0.9004690354870509  0.4256906715582933  0.24312652577331173  1.0000
  H   H18       1.0  0.9004690173719117  0.4256907396697047  0.014622496396898832  1.0000
  H   H19       1.0  0.1150522038052284  0.7094969300314589  0.9956490483500122  1.0000
  H   H20       1.0  0.11505216142202634  0.7094968799305075  0.22407341578298068  1.0000
  H   H21       1.0  0.0686187357210215  0.6480842849394972  0.6830109596335565  1.0000
  Zn  Zn1       1.0  0.914931923723407  0.5686604726013442  0.6190955539998404  1.0000
  Zn  Zn2       1.0  0.10062472974185277  0.5665842119917388  0.6196357304597886  1.0000
  C   C26       1.0  0.007815828238558531  0.5618749617419418  0.8480960970444531  1.0000
  C   C27       1.0  0.007742841790144617  0.5733715206083057  0.39063531357319925  1.0000
  C   C28       1.0  0.006157354146886007  0.8311320696289572  0.6139915129131974  1.0000
  C   C29       1.0  0.009401263178938413  0.3041126800064522  0.6247399668121498  1.0000
  O   O2        1.0  0.07819905649257719  0.5745066782002939  0.4374948865257122  1.0000
  O   O3        1.0  0.07829616335925293  0.5591628819626817  0.8016461466217168  1.0000
  O   O4        1.0  0.07695597459397141  0.7765914124240794  0.6126050336566824  1.0000
  O   O5        1.0  0.07953918183001041  0.35707815876838134  0.6265359053952355  1.0000
  O   O6        1.0  0.9360174082673988  0.7781665265347986  0.6121953788734684  1.0000
  O   O7        1.0  0.9373575863677083  0.5607397294983345  0.8012364225398829  1.0000
  O   O8        1.0  0.9372604798666888  0.5760834754579729  0.4370836568947474  1.0000
  O   O9        1.0  0.9386006052641195  0.3586549457066712  0.6261247696688572  1.0000
