data_image0
_chemical_formula_structural       NC9NC3OH6C6H6C6BrH5Zn2C4O8
_chemical_formula_sum              "N2 C28 O9 H17 Br1 Zn2"
_cell_length_a       15.78231758774541
_cell_length_b       10.681118228259551
_cell_length_c       10.302972455390005
_cell_angle_alpha    85.56070709788946
_cell_angle_beta     90.08385913268748
_cell_angle_gamma    89.63144314392761

_space_group_name_H-M_alt    "P 1"
_space_group_IT_number       1

loop_
  _space_group_symop_operation_xyz
  'x, y, z'

loop_
  _atom_site_type_symbol
  _atom_site_label
  _atom_site_symmetry_multiplicity
  _atom_site_fract_x
  _atom_site_fract_y
  _atom_site_fract_z
  _atom_site_occupancy
  N   N1        1.0  0.7978581378810885  0.36280264428584275  0.5703924758996979  1.0000
  C   C1        1.0  0.7493270711560109  0.28366966584705877  0.5944640813787783  1.0000
  C   C2        1.0  0.6890739486466165  0.18544640459554262  0.6243431451584474  1.0000
  C   C3        1.0  0.7087380507256589  0.062062160038121705  0.6617966809437124  1.0000
  C   C4        1.0  0.6320082050426749  0.0022653251377073857  0.6800226568478063  1.0000
  C   C5        1.0  0.5702264313107374  0.09358378731248185  0.6523440203545536  1.0000
  C   C6        1.0  0.47713565742392017  0.07670039933511763  0.6575531128840137  1.0000
  C   C7        1.0  0.4233892845195761  0.18022132220325782  0.6260109322444809  1.0000
  C   C8        1.0  0.3351829689612679  0.16637734883151634  0.6302894215479844  1.0000
  C   C9        1.0  0.2807400616646737  0.27291026665149465  0.5978212611169247  1.0000
  N   N2        1.0  0.23698085912925632  0.35854898796316403  0.5717197619801166  1.0000
  C   C10       1.0  0.30004174097984  0.04885837622067957  0.6661590688163606  1.0000
  C   C11       1.0  0.3528571787909385  0.9455514799508816  0.6976403925289885  1.0000
  C   C12       1.0  0.44087783677255504  0.9590151371675747  0.6934781687182208  1.0000
  O   O1        1.0  0.6066835251389933  0.20180803519019297  0.6194438116506495  1.0000
  H   H1        1.0  0.771198968140389  0.020452566423330376  0.6743765240852613  1.0000
  H   H2        1.0  0.6232772664385651  0.9039436430946739  0.7098836164697753  1.0000
  H   H3        1.0  0.4499936285908378  0.2716719207190197  0.5980932664371139  1.0000
  H   H4        1.0  0.2319255942700058  0.03713325019698943  0.6697806050447537  1.0000
  H   H5        1.0  0.3255225113331022  0.8547260851872874  0.7253676221387171  1.0000
  H   H6        1.0  0.47996527467963285  0.877188800104269  0.718421841272497  1.0000
  C   C13       1.0  0.017423553016048032  0.9929257810630167  0.5710617083957699  1.0000
  C   C14       1.0  0.05462036163116535  0.9180522023168843  0.6742773097041344  1.0000
  C   C15       1.0  0.054620348676680086  0.7871699642665745  0.6742772503092298  1.0000
  C   C16       1.0  0.017423538789899107  0.7284161851576441  0.5710617644747373  1.0000
  C   C17       1.0  0.9802575218163013  0.803278065853532  0.46793145802503555  1.0000
  C   C18       1.0  0.9802575347283596  0.9341703238273028  0.46793151075549  1.0000
  H   H7        1.0  0.9798072824927532  0.2997862723959501  0.46668332548902836  1.0000
  H   H8        1.0  0.08377702533833009  0.9605453920310278  0.7551825292039225  1.0000
  H   H9        1.0  0.0837769211617998  0.7320413644444071  0.7551825059562807  1.0000
  H   H10       1.0  0.9510970564851786  0.7608304560169756  0.3870156748188949  1.0000
  H   H11       1.0  0.951097034274847  0.9892548952660138  0.38701566419528266  1.0000
  H   H12       1.0  0.9798075944555411  0.4378569184845682  0.46668297524114766  1.0000
  C   C19       1.0  0.017423514361417647  0.3606709587795831  0.18981918483154692  1.0000
  C   C20       1.0  0.042127507312469836  0.23372500770237847  0.19884490188105253  1.0000
  C   C21       1.0  0.054382067942384094  0.1707529615063863  0.08638430977425449  1.0000
  C   C22       1.0  0.042127650123734206  0.23372495744035726  0.9637625117113782  1.0000
  C   C23       1.0  0.01742355445081456  0.3606709618183668  0.9523042670272144  1.0000
  C   C24       1.0  0.005190810691204861  0.4235308851485473  0.0659902029396624  1.0000
  Br  Br1       1.0  0.08798358041035126  0.998084527763892  0.1003152322138865  1.0000
  H   H13       1.0  0.00812550462461692  0.4084524401485823  0.5137235354739171  1.0000
  H   H14       1.0  0.05196158846019583  0.18319014881881546  0.2929213474055177  1.0000
  H   H15       1.0  0.05196192327222149  0.18319018752828886  0.8778404457881663  1.0000
  H   H16       1.0  0.9861381003474975  0.52143647095877  0.058091167020324574  1.0000
  H   H17       1.0  0.008124313784527493  0.40845198146030315  0.6206899078878783  1.0000
  Zn  Zn1       1.0  0.9245794660159744  0.3615717858577905  0.5707829929749155  1.0000
  Zn  Zn2       1.0  0.11025950250281102  0.35976962543455016  0.5713398577056183  1.0000
  C   C25       1.0  0.017421665750195325  0.35568206779696876  0.8081782697507338  1.0000
  C   C26       1.0  0.01741933038877108  0.36566090391932304  0.33394471443508  1.0000
  C   C27       1.0  0.01741917135798121  0.589392859610745  0.5658882831035326  1.0000
  C   C28       1.0  0.017421761421422266  0.1319486081372716  0.5762347701078379  1.0000
  O   O2        1.0  0.08788253237662347  0.3666462011889948  0.38252588603576365  1.0000
  O   O3        1.0  0.0878853151122696  0.3533280277291855  0.7600193718734456  1.0000
  O   O4        1.0  0.08788235096250774  0.5420524570146483  0.5643684905652411  1.0000
  O   O5        1.0  0.08788543316635944  0.17792178147694737  0.5781766698115451  1.0000
  O   O6        1.0  0.9469534719889425  0.5434196304317453  0.5639461806721289  1.0000
  O   O7        1.0  0.9469564361347835  0.35469670573091006  0.7595969927579178  1.0000
  O   O8        1.0  0.9469536534553857  0.3680148355502888  0.3821019460370736  1.0000
  O   O9        1.0  0.9469565542416634  0.17929040688117848  0.5777528271484189  1.0000
