data_image0
_chemical_formula_structural       NC9NC3OH6C7F3H5C6SCH8Zn2C4O8
_chemical_formula_sum              "N2 C30 O9 H19 F3 S1 Zn2"
_cell_length_a       15.78231758774541
_cell_length_b       9.27228830945605
_cell_length_c       10.302812801239593
_cell_angle_alpha    85.26210475024874
_cell_angle_beta     90.08384720459999
_cell_angle_gamma    89.05832516092083

_space_group_name_H-M_alt    "P 1"
_space_group_IT_number       1

loop_
  _space_group_symop_operation_xyz
  'x, y, z'

loop_
  _atom_site_type_symbol
  _atom_site_label
  _atom_site_symmetry_multiplicity
  _atom_site_fract_x
  _atom_site_fract_y
  _atom_site_fract_z
  _atom_site_occupancy
  N   N1        1.0  0.7886180537169672  0.570706375672114  0.5629476937663127  1.0000
  C   C1        1.0  0.7406235329571245  0.4795011887407903  0.5874506770441357  1.0000
  C   C2        1.0  0.6810363944098238  0.3662933823345116  0.6178651855333244  1.0000
  C   C3        1.0  0.7015370796776073  0.2240861343456506  0.6559913249288873  1.0000
  C   C4        1.0  0.6252126749465994  0.1551669351353011  0.6745432720273228  1.0000
  C   C5        1.0  0.5628117339033023  0.26041657412111796  0.6463668325232521  1.0000
  C   C6        1.0  0.46983543457679855  0.24095752446613905  0.6516679626430188  1.0000
  C   C7        1.0  0.41538715794001363  0.36027118241207634  0.6195614573383021  1.0000
  C   C8        1.0  0.32727470877573017  0.34431522821438376  0.6239154153702571  1.0000
  C   C9        1.0  0.27210947549460685  0.46710037893204825  0.5908665108273667  1.0000
  N   N2        1.0  0.22776961606052823  0.5658037986703179  0.5642981683308768  1.0000
  C   C10       1.0  0.2929302956057296  0.20886803442906854  0.6604256959818486  1.0000
  C   C11       1.0  0.346446185982441  0.08980105411714834  0.692470177701787  1.0000
  C   C12       1.0  0.434375556230616  0.10531867265882622  0.6882345583898866  1.0000
  O   O1        1.0  0.598535033997175  0.38515107739456633  0.6128766610336205  1.0000
  H   H1        1.0  0.7642801229624828  0.17612874871007245  0.6687979933492794  1.0000
  H   H2        1.0  0.6171483876343685  0.04184569326022314  0.7049402121356751  1.0000
  H   H3        1.0  0.441371438801759  0.4656731159363974  0.591145265123139  1.0000
  H   H4        1.0  0.22489364885401822  0.19535417039804903  0.6641111502685102  1.0000
  H   H5        1.0  0.3197273426601651  0.9851197029115085  0.7206925255406273  1.0000
  H   H6        1.0  0.47401780189675763  0.011009239155864936  0.713624291873252  1.0000
  C   C13       1.0  0.010691363047869107  0.14440259317124537  0.5656315033893273  1.0000
  C   C14       1.0  0.050952584962386416  0.2259628292089373  0.4632106822872617  1.0000
  C   C15       1.0  0.0828455181072747  0.1599905599587268  0.35623760183399433  1.0000
  C   C16       1.0  0.0741670333353619  0.010882752737485957  0.34791218168037386  1.0000
  C   C17       1.0  0.03699684505270606  0.9276055568122983  0.4519950782825721  1.0000
  C   C18       1.0  0.005704478446781236  0.9920964232464744  0.5616256678896099  1.0000
  C   C19       1.0  0.11079361978863389  0.93893263547038  0.23398573037874826  1.0000
  F   F1        1.0  0.110059792393014  0.033540823888170035  0.12276606997447792  1.0000
  F   F2        1.0  0.06413199288069915  0.8191004620729169  0.20909386098936622  1.0000
  F   F3        1.0  0.1934247611639477  0.8954528419664979  0.2623548363320105  1.0000
  H   H7        1.0  0.8682285014603541  0.22856959836741852  0.7987193649784254  1.0000
  H   H8        1.0  0.056297568288864897  0.3421674281445799  0.46457052318867165  1.0000
  H   H9        1.0  0.1137208205114244  0.2261231779924584  0.27929139560816063  1.0000
  H   H10       1.0  0.03428923026491515  0.8111969710208741  0.4490674187465986  1.0000
  H   H11       1.0  0.966240796414914  0.8628495749656583  0.8759251871407321  1.0000
  C   C20       1.0  0.00819793531494839  0.5682495070212652  0.18238011444537583  1.0000
  C   C21       1.0  0.9787738163505736  0.7125060011964299  0.17041476448113446  1.0000
  C   C22       1.0  0.9639160955257083  0.7840730314216904  0.04748593308377491  1.0000
  C   C23       1.0  0.9787737408489557  0.712505850535539  0.9352635952729615  1.0000
  C   C24       1.0  0.00819788040839442  0.5682494979079851  0.9448770179518586  1.0000
  C   C25       1.0  0.02274012252277835  0.4968138827160009  0.06897142893985309  1.0000
  S   S1        1.0  0.9264958362669388  0.9684869596004895  0.03369331389441266  1.0000
  C   C26       1.0  0.8153300782211088  0.9193024776092007  0.03710099330504857  1.0000
  H   H12       1.0  0.01925508417870825  0.5138680747599069  0.5142036309550231  1.0000
  H   H13       1.0  0.9670853967954206  0.769805104298291  0.2562287326961934  1.0000
  H   H14       1.0  0.9670852283659743  0.7698048982755592  0.8408784201749215  1.0000
  H   H15       1.0  0.04542093993030649  0.38553305772355073  0.07729441278301064  1.0000
  H   H16       1.0  0.019253510792190065  0.5138673430256253  0.6211880441301418  1.0000
  H   H17       1.0  0.8006817846946547  0.8552605069221599  0.9537118931314255  1.0000
  H   H18       1.0  0.8006821390391141  0.8552619615563883  0.12994657938780585  1.0000
  H   H19       1.0  0.7755255810089341  0.019364970681678972  0.029573100305211097  1.0000
  Zn  Zn1       1.0  0.9153477274488955  0.5692877424386358  0.563344920872628  1.0000
  Zn  Zn2       1.0  0.10103998313725837  0.567210651678786  0.5639116098591095  1.0000
  C   C27       1.0  0.008229829374874598  0.5624995014556471  0.8007759560028413  1.0000
  C   C28       1.0  0.008159898251222986  0.5740006911376905  0.3264806997372598  1.0000
  C   C29       1.0  0.006642727023039585  0.8318642786059909  0.5572092876900043  1.0000
  C   C30       1.0  0.009746947440915088  0.3046341805797472  0.5700474452682178  1.0000
  O   O2        1.0  0.07861641299961297  0.5751362990555986  0.3750572578099185  1.0000
  O   O3        1.0  0.07870944647332734  0.5597863408505039  0.7526291331761918  1.0000
  O   O4        1.0  0.07742689129337599  0.7773018156078524  0.5559473152478076  1.0000
  O   O5        1.0  0.07989890475464101  0.35762083533215194  0.5717389781522255  1.0000
  O   O6        1.0  0.9364887424638502  0.7788775594956505  0.5555175523792921  1.0000
  O   O7        1.0  0.9377712874382816  0.561363818856282  0.7521992928893357  1.0000
  O   O8        1.0  0.9376782543169239  0.576713726763413  0.3746258568533989  1.0000
  O   O9        1.0  0.9389607461292127  0.35919825271644523  0.5713076745815635  1.0000
