data_image0
_chemical_formula_structural       NC9NC3OH6C6SCH8C6ClH5Zn2C4O8
_chemical_formula_sum              "N2 C29 O9 H19 S1 Cl1 Zn2"
_cell_length_a       15.78231758774541
_cell_length_b       10.302809429070853
_cell_length_c       10.302974078461048
_cell_angle_alpha    85.56069480931454
_cell_angle_beta     90.08385130592438
_cell_angle_gamma    89.63144148246117

_space_group_name_H-M_alt    "P 1"
_space_group_IT_number       1

loop_
  _space_group_symop_operation_xyz
  'x, y, z'

loop_
  _atom_site_type_symbol
  _atom_site_label
  _atom_site_symmetry_multiplicity
  _atom_site_fract_x
  _atom_site_fract_y
  _atom_site_fract_z
  _atom_site_occupancy
  N   N1        1.0  0.7978582379305066  0.41284350391398195  0.5703924909706486  1.0000
  C   C1        1.0  0.7493271706341911  0.33080483947001693  0.5944641045480661  1.0000
  C   C2        1.0  0.6890740474157208  0.22897491559522387  0.6243431783796873  1.0000
  C   C3        1.0  0.708738148611104  0.10106012158420419  0.6617967268039096  1.0000
  C   C4        1.0  0.632008302493241  0.03906760506083562  0.6800227088219901  1.0000
  C   C5        1.0  0.5702265294116446  0.1337391923451603  0.65234406296818  1.0000
  C   C6        1.0  0.4771357553964364  0.11623586277650255  0.6575531572142981  1.0000
  C   C7        1.0  0.42338938324399766  0.22355797325374582  0.6260109659885174  1.0000
  C   C8        1.0  0.3351830675797757  0.20920566263938611  0.6302894566985486  1.0000
  C   C9        1.0  0.2807401610576965  0.3196503655943863  0.597821285374484  1.0000
  N   N2        1.0  0.23698095914500383  0.4084336574657874  0.5717197774813005  1.0000
  C   C10       1.0  0.300041838739229  0.0873715076421886  0.6661591159751488  1.0000
  C   C11       1.0  0.35285727579958964  0.9802712826115199  0.6976404502514744  1.0000
  C   C12       1.0  0.44087793388432334  0.9942293122314643  0.6934782250730114  1.0000
  O   O1        1.0  0.606683624019298  0.2459373293468161  0.6194438431856315  1.0000
  H   H1        1.0  0.7711990657323504  0.05792266416599556  0.674376574215507  1.0000
  H   H2        1.0  0.6232773631836145  0.9371356464821884  0.7098836785132978  1.0000
  H   H3        1.0  0.4499937279842255  0.3183665488110825  0.598093290837342  1.0000
  H   H4        1.0  0.23192569193988002  0.07521584639063406  0.6697806533951209  1.0000
  H   H5        1.0  0.3255226076773228  0.8861108676800882  0.7253676891410679  1.0000
  H   H6        1.0  0.4799653711960308  0.9093983916500489  0.7184219059932251  1.0000
  C   C13       1.0  0.017423660335463387  0.02938512993750586  0.5710617783471466  1.0000
  C   C14       1.0  0.06630367199624065  0.03655832214537247  0.45697506970813206  1.0000
  C   C15       1.0  0.09039223511411776  0.9231507770921721  0.4000613862728126  1.0000
  C   C16       1.0  0.06630356515698188  0.8014071652976973  0.4569749996140986  1.0000
  C   C17       1.0  0.017423626562731664  0.7918819916457458  0.5710617714296404  1.0000
  C   C18       1.0  0.9932005540500525  0.9065019549445379  0.627522930647443  1.0000
  S   S1        1.0  0.15299998997455044  0.9338046324180836  0.25445091676555  1.0000
  C   C19       1.0  0.061179036683884025  0.9430246935433525  0.14703274870120064  1.0000
  H   H7        1.0  0.9989752822491559  0.3539974987742014  0.6140275400080064  1.0000
  H   H8        1.0  0.08571828705255302  0.12997433996154584  0.4116580607533169  1.0000
  H   H9        1.0  0.0857181000707059  0.7146239483512811  0.4116579590202165  1.0000
  H   H10       1.0  0.9554834010867556  0.9000630630133636  0.7155097071931675  1.0000
  H   H11       1.0  0.998973898199014  0.46098174469501735  0.6140261082174774  1.0000
  H   H12       1.0  0.022295337076115196  0.8539600110873498  0.164226922119854  1.0000
  H   H13       1.0  0.022296130593492336  0.030194964784289846  0.164226452586268  1.0000
  H   H14       1.0  0.08305761084858299  0.9507464249952684  0.04448299753725893  1.0000
  C   C20       1.0  0.017423648276083004  0.41063357201634876  0.18981925816012724  1.0000
  C   C21       1.0  0.002684702166556363  0.27593695729145185  0.19900838739893612  1.0000
  C   C22       1.0  0.995371682565912  0.20910416535733134  0.08661099163303998  1.0000
  C   C23       1.0  0.0026847400628187135  0.27593703023278726  0.9639004885423681  1.0000
  C   C24       1.0  0.017423646114785418  0.4106335050214789  0.9523042772270198  1.0000
  C   C25       1.0  0.0247212886066146  0.47732525090305256  0.06591610909837664  1.0000
  Cl  Cl1       1.0  0.9769592401630378  0.04083609428048218  0.09959393983700893  1.0000
  H   H15       1.0  0.02297604345585058  0.46137145701554405  0.5136608123452975  1.0000
  H   H16       1.0  0.9968226906394748  0.22236496805943995  0.29318834843248287  1.0000
  H   H17       1.0  0.996822749849536  0.22236494893923897  0.877987382537543  1.0000
  H   H18       1.0  0.03608836821979278  0.5812073234350377  0.05790085167602688  1.0000
  H   H19       1.0  0.02297588222273239  0.4613714471457011  0.620633181376586  1.0000
  Zn  Zn1       1.0  0.9245795660550765  0.4115674495604178  0.570783008169379  1.0000
  Zn  Zn2       1.0  0.11025960252813394  0.40969911555856564  0.5713398730831931  1.0000
  C   C26       1.0  0.01742174480778047  0.40546145007720846  0.8081782496782293  1.0000
  C   C27       1.0  0.017419451395567664  0.4158067327629329  0.3339447650793712  1.0000
  C   C28       1.0  0.017419267317595466  0.647753887001352  0.5658882651775201  1.0000
  C   C29       1.0  0.017421865526213276  0.17351273664628963  0.5762348186058488  1.0000
  O   O2        1.0  0.08788264904630116  0.41682820572459645  0.38252592913730155  1.0000
  O   O3        1.0  0.08788539849656796  0.40302097541267834  0.7600193594828684  1.0000
  O   O4        1.0  0.0878824479952891  0.5986751919929121  0.5643684799077773  1.0000
  O   O5        1.0  0.08788553618756256  0.2211739990693118  0.5781767111799829  1.0000
  O   O6        1.0  0.9469535690321641  0.6000925666886561  0.5639461698757293  1.0000
  O   O7        1.0  0.9469565195294989  0.4044399099399061  0.7595969802281917  1.0000
  O   O8        1.0  0.9469537701356192  0.41824709500907176  0.3821019889997066  1.0000
  O   O9        1.0  0.9469566572734145  0.2225928790678222  0.5777528683779383  1.0000
