data_image0
_chemical_formula_structural       NC9NC3OH6C8H10C6ClH5Zn2C4O8
_chemical_formula_sum              "N2 C30 O9 H21 Cl1 Zn2"
_cell_length_a       15.78231758774541
_cell_length_b       9.275653711864159
_cell_length_c       10.302974078461048
_cell_angle_alpha    85.74330483698749
_cell_angle_beta     90.08385130592438
_cell_angle_gamma    89.08352321082864

_space_group_name_H-M_alt    "P 1"
_space_group_IT_number       1

loop_
  _space_group_symop_operation_xyz
  'x, y, z'

loop_
  _atom_site_type_symbol
  _atom_site_label
  _atom_site_symmetry_multiplicity
  _atom_site_fract_x
  _atom_site_fract_y
  _atom_site_fract_z
  _atom_site_occupancy
  N   N1        1.0  0.7890450079324302  0.5690877338038378  0.5748766363313049  1.0000
  C   C1        1.0  0.7410256927278904  0.47797653732661516  0.5986878719577737  1.0000
  C   C2        1.0  0.681407778247903  0.3648853959203098  0.6282437534616849  1.0000
  C   C3        1.0  0.7018698039810376  0.22282469797413773  0.6652913202407109  1.0000
  C   C4        1.0  0.6255266633296799  0.15397652264900152  0.683320547660994  1.0000
  C   C5        1.0  0.5631543347685076  0.25911769782944605  0.6559423746888098  1.0000
  C   C6        1.0  0.47017274543567467  0.23967870147151804  0.6610959160914147  1.0000
  C   C7        1.0  0.4157569046259538  0.3588694021041585  0.6298943485387152  1.0000
  C   C8        1.0  0.3276401177836416  0.34292989112905925  0.6341272872489125  1.0000
  C   C9        1.0  0.2725082640664094  0.4655885070268686  0.6020096502203958  1.0000
  N   N2        1.0  0.2281952374950894  0.5641902090952264  0.5761899266757597  1.0000
  C   C10       1.0  0.29325888283246565  0.20762228088428247  0.6696102638820443  1.0000
  C   C11       1.0  0.3467424044424782  0.08867800367473477  0.700751678715158  1.0000
  C   C12       1.0  0.43467599320564876  0.10417963071555914  0.6966337541500256  1.0000
  O   O1        1.0  0.5989115443683654  0.38372365739767544  0.6233982543285372  1.0000
  H   H1        1.0  0.7645998098815479  0.1749167342719402  0.6777342560771653  1.0000
  H   H2        1.0  0.6174315692446797  0.04077206267500144  0.7128580011823251  1.0000
  H   H3        1.0  0.4417698393622698  0.4641627148838934  0.6022775810486203  1.0000
  H   H4        1.0  0.22521856229277792  0.1941223434083692  0.6731932211253335  1.0000
  H   H5        1.0  0.31999510313840884  0.9841045306258867  0.7281800671046057  1.0000
  H   H6        1.0  0.4742926005294358  0.009967386710584725  0.7213081949329481  1.0000
  C   C13       1.0  0.01100241985015371  0.14322327722104755  0.5743288865172667  1.0000
  C   C14       1.0  0.9911155338068018  0.22685102817291014  0.4584837130496411  1.0000
  C   C15       1.0  0.9635883720114493  0.16193102433980888  0.34764010915231003  1.0000
  C   C16       1.0  0.9572085648159184  0.011408454240216859  0.3517692738480238  1.0000
  C   C17       1.0  0.9780098907941531  0.9265830401185683  0.46511522584171927  1.0000
  C   C18       1.0  0.006245964371038193  0.990043465695263  0.5767488530409819  1.0000
  C   C19       1.0  0.9437412611254717  0.2529405130749345  0.22388152285017116  1.0000
  C   C20       1.0  0.023006742618663756  0.273895481839886  0.14057378621819971  1.0000
  H   H7        1.0  0.08792255338589583  0.40690931107802175  0.7545034659980203  1.0000
  H   H8        1.0  0.9951728291835337  0.3436244671672184  0.4549981991734624  1.0000
  H   H9        1.0  0.9369173683546506  0.9593939176896836  0.2665520086513451  1.0000
  H   H10       1.0  0.9740913453093516  0.8101556226264752  0.4643110374296868  1.0000
  H   H11       1.0  0.014219644889310601  0.6908473068426934  0.7908602628027339  1.0000
  H   H12       1.0  0.8943416179095555  0.20061104571890453  0.1672802844606731  1.0000
  H   H13       1.0  0.9180248751267502  0.3603907015563268  0.2468156144830218  1.0000
  H   H14       1.0  0.07238791318952376  0.32954122522934215  0.19432035002904446  1.0000
  H   H15       1.0  0.04844130924376855  0.16770533351457861  0.11393568005405319  1.0000
  H   H16       1.0  0.007025489351643932  0.34113276022516414  0.04991445448943477  1.0000
  C   C21       1.0  0.008624203695881905  0.5666334088743519  0.1942963895409353  1.0000
  C   C22       1.0  0.9947254867003685  0.4170408989012133  0.203058012691248  1.0000
  C   C23       1.0  0.9878293659035172  0.3428171694158295  0.0904485000468298  1.0000
  C   C24       1.0  0.9947255241416273  0.41704097990902067  0.967950114066185  1.0000
  C   C25       1.0  0.008624201952494026  0.5666333344706207  0.9567814083951958  1.0000
  C   C26       1.0  0.015505825477042823  0.6407004198334669  0.07060490948685971  1.0000
  Cl  Cl1       1.0  0.9704665692736  0.1559405864212624  0.1028973915855167  1.0000
  H   H17       1.0  0.01386009910134689  0.6229823199680709  0.5182989778753213  1.0000
  H   H18       1.0  0.9891976539137124  0.35754446426669517  0.2970679445698956  1.0000
  H   H19       1.0  0.989197713243044  0.35754444303202004  0.8818669786142714  1.0000
  H   H20       1.0  0.0262248951759132  0.7560706539184883  0.06291935759262368  1.0000
  H   H21       1.0  0.013859937929795896  0.6229823090067372  0.6252713468752842  1.0000
  Zn  Zn1       1.0  0.9157742960047769  0.5676705625259877  0.5752631035321454  1.0000
  Zn  Zn2       1.0  0.10146598702925913  0.5655956122878094  0.5758140386446593  1.0000
  C   C27       1.0  0.008654563602894072  0.5608893097791869  0.8126389655490851  1.0000
  C   C28       1.0  0.008587736960035341  0.5723786616571083  0.3384383152671431  1.0000
  C   C29       1.0  0.007140680944697664  0.8299765014730376  0.5711179795283536  1.0000
  C   C30       1.0  0.010101565984838023  0.303289738342013  0.5799593653650097  1.0000
  O   O2        1.0  0.07904456272589755  0.5735130977713123  0.38702272132125337  1.0000
  O   O3        1.0  0.07913344082101337  0.5581789467063023  0.7644723296670195  1.0000
  O   O4        1.0  0.07791001147261634  0.7754702676859928  0.5694424261201585  1.0000
  O   O5        1.0  0.08026792865236576  0.35622178781415514  0.5820525273672048  1.0000
  O   O6        1.0  0.9369722910142002  0.7770443877092896  0.5690246146147684  1.0000
  O   O7        1.0  0.9381957106285213  0.5597547990604914  0.764054453889663  1.0000
  O   O8        1.0  0.9381068328720142  0.575088899879421  0.386603284517385  1.0000
  O   O9        1.0  0.9393301988529416  0.35779757960937886  0.581633187869415  1.0000
