data_image0
_chemical_formula_structural       NC9NC3OH6C6BrH5C9H8Zn2C4O8
_chemical_formula_sum              "N2 C31 O9 H19 Br1 Zn2"
_cell_length_a       15.78231758774541
_cell_length_b       10.302969083221269
_cell_length_c       9.275155815604963
_cell_angle_alpha    86.05280197498422
_cell_angle_beta     90.4446892459172
_cell_angle_gamma    89.63144763104107

_space_group_name_H-M_alt    "P 1"
_space_group_IT_number       1

loop_
  _space_group_symop_operation_xyz
  'x, y, z'

loop_
  _atom_site_type_symbol
  _atom_site_label
  _atom_site_symmetry_multiplicity
  _atom_site_fract_x
  _atom_site_fract_y
  _atom_site_fract_z
  _atom_site_occupancy
  N   N1        1.0  0.7920365913737749  0.40057427586495087  0.4129208395461039  1.0000
  C   C1        1.0  0.7436035444117098  0.3187431022203844  0.4396439497759481  1.0000
  C   C2        1.0  0.6834720896803417  0.21717072786338631  0.47281421403759216  1.0000
  C   C3        1.0  0.7032887028322221  0.08957877748006227  0.514393283925729  1.0000
  C   C4        1.0  0.6266330734697779  0.027743362077702116  0.5346268642318641  1.0000
  C   C5        1.0  0.5647385921337968  0.12217636165531842  0.5038994058477977  1.0000
  C   C6        1.0  0.4716690297244426  0.10471792919941247  0.50968228363819  1.0000
  C   C7        1.0  0.4177942168085733  0.21176815726212994  0.4746657090257713  1.0000
  C   C8        1.0  0.3296053233031877  0.19745272252855894  0.47941547697587006  1.0000
  C   C9        1.0  0.2750302053965522  0.30761756188615874  0.44337092523467336  1.0000
  N   N2        1.0  0.23116471734679753  0.3961758685059724  0.41439432712620494  1.0000
  C   C10       1.0  0.2946101568226146  0.07592774788676238  0.5192361917501485  1.0000
  C   C11       1.0  0.34755378683609006  0.9690988804758364  0.554185205998367  1.0000
  C   C12       1.0  0.43555749619886497  0.9830210363619934  0.5495645102687265  1.0000
  O   O1        1.0  0.6010617160622187  0.23409090656525455  0.46737521534995974  1.0000
  H   H1        1.0  0.7658008454519172  0.0465497590347872  0.5283588059371991  1.0000
  H   H2        1.0  0.6180237289152058  0.9260687995010658  0.5677770301812788  1.0000
  H   H3        1.0  0.44428487991256643  0.30633609524473115  0.44367289220629424  1.0000
  H   H4        1.0  0.22650875704559434  0.06380330041200177  0.5232566427769918  1.0000
  H   H5        1.0  0.3203320248878144  0.8751774616234947  0.5849666099354895  1.0000
  H   H6        1.0  0.47474650494183346  0.8984051207780416  0.5772557463580952  1.0000
  C   C13       1.0  0.011604712494645897  0.01712757713820623  0.41366386189542603  1.0000
  C   C14       1.0  0.0995418215076056  0.013521317430245539  0.43824823771671717  1.0000
  C   C15       1.0  0.14316336003840302  0.8947945664167882  0.4504432244464551  1.0000
  C   C16       1.0  0.0995418870340441  0.7784389550554455  0.4382479644631494  1.0000
  C   C17       1.0  0.011604725171745045  0.7796125936279557  0.41366376638796787  1.0000
  C   C18       1.0  0.9680608170882127  0.8995535412298132  0.40149036030287677  1.0000
  Br  Br1       1.0  0.262772967059987  0.8915437907069784  0.48388259788679555  1.0000
  H   H7        1.0  0.9785060318405616  0.34578659983476956  0.4044098874554485  1.0000
  H   H8        1.0  0.13454792238058833  0.10256922821644321  0.448034971496196  1.0000
  H   H9        1.0  0.1345480197049682  0.6874882880709652  0.44803432260419784  1.0000
  H   H10       1.0  0.9002403373927451  0.9013967341910099  0.38253013683390247  1.0000
  H   H11       1.0  0.9785057969896989  0.45275262647893705  0.40441201637774893  1.0000
  C   C19       1.0  0.01005220526186501  0.39510403683598216  0.9904273754752113  1.0000
  C   C20       1.0  0.9437659100854442  0.4590279926757146  0.05801981887109764  1.0000
  C   C21       1.0  0.8831550934254272  0.5315234449565427  0.9765316647403846  1.0000
  C   C22       1.0  0.8877065442120675  0.541611553523607  0.8259651382128013  1.0000
  C   C23       1.0  0.9522877082102336  0.4770071398484719  0.7566586086403784  1.0000
  C   C24       1.0  0.013157216265985205  0.40163611119539877  0.836900218933331  1.0000
  C   C25       1.0  0.8253829349327058  0.6171572885747569  0.7421586181564725  1.0000
  C   C26       1.0  0.7731981396156954  0.6804164977017957  0.6719554619349779  1.0000
  C   C27       1.0  0.7098812742742237  0.7571708464531721  0.5867643271661231  1.0000
  H   H12       1.0  0.20672684875253666  0.28838759179967943  0.10404516669163133  1.0000
  H   H13       1.0  0.9399590963964053  0.4554672917104676  0.17479858384965263  1.0000
  H   H14       1.0  0.8331523924311781  0.5808211278225786  0.0311769078734776  1.0000
  H   H15       1.0  0.9538532951608681  0.48309633437856236  0.6395175652720266  1.0000
  H   H16       1.0  0.144386228117785  0.3251378476015956  0.5637581721417675  1.0000
  H   H17       1.0  0.7270997977000968  0.7607285559833543  0.4708231146229189  1.0000
  H   H18       1.0  0.6467733932144408  0.7115716851418734  0.6015788585622062  1.0000
  H   H19       1.0  0.7077368521524423  0.8574399349124024  0.6232618469068147  1.0000
  Zn  Zn1       1.0  0.918759509699955  0.3993015868138383  0.4133543723489894  1.0000
  Zn  Zn2       1.0  0.10444181374574835  0.3974380523795229  0.4139725761267872  1.0000
  C   C28       1.0  0.012568425136970873  0.3952294285651321  0.6768987558924202  1.0000
  C   C29       1.0  0.010634926472651518  0.4015118294680482  0.15042834079394085  1.0000
  C   C30       1.0  0.01157929476412467  0.6354424317675034  0.4079204643719261  1.0000
  C   C31       1.0  0.011623993766940677  0.16129726768867458  0.41940670894346077  1.0000
  O   O2        1.0  0.0812959597280305  0.40294947766761324  0.2043607314942879  1.0000
  O   O3        1.0  0.08283596273438598  0.3923764182369345  0.6234351526675841  1.0000
  O   O4        1.0  0.08203628303811894  0.5863514773290273  0.40623327603596104  1.0000
  O   O5        1.0  0.08209557566710268  0.20897442766476315  0.4215624998502834  1.0000
  O   O6        1.0  0.9411056844143149  0.5877652121658858  0.4057644484069496  1.0000
  O   O7        1.0  0.9419053638248539  0.3937917122880834  0.6229662481910032  1.0000
  O   O8        1.0  0.9403653545185485  0.4043647131047474  0.2038900942031685  1.0000
  O   O9        1.0  0.9411649708505303  0.21038965464994264  0.42109197061624837  1.0000
