data_image0
_chemical_formula_structural       NC9NC3OH6C7H8C7NH5Zn2C4O8
_chemical_formula_sum              "N3 C30 O9 H19 Zn2"
_cell_length_a       15.78231758774541
_cell_length_b       9.274341958901593
_cell_length_c       10.302823150593486
_cell_angle_alpha    85.52847871026538
_cell_angle_beta     90.08385050025007
_cell_angle_gamma    89.0114341261544

_space_group_name_H-M_alt    "P 1"
_space_group_IT_number       1

loop_
  _space_group_symop_operation_xyz
  'x, y, z'

loop_
  _atom_site_type_symbol
  _atom_site_label
  _atom_site_symmetry_multiplicity
  _atom_site_fract_x
  _atom_site_fract_y
  _atom_site_fract_z
  _atom_site_occupancy
  N   N1        1.0  0.7878749144353466  0.5697922899005565  0.5695379886118999  1.0000
  C   C1        1.0  0.7399235428309809  0.4786401822887294  0.5936583566030282  1.0000
  C   C2        1.0  0.6803899628739911  0.3654982602200294  0.6235979465180261  1.0000
  C   C3        1.0  0.7009579263590276  0.2233737735785397  0.6611275117320925  1.0000
  C   C4        1.0  0.6246661272885894  0.1544946837547534  0.6793903355540163  1.0000
  C   C5        1.0  0.5622153926661635  0.25968306987037737  0.6516554291801913  1.0000
  C   C6        1.0  0.46924829941488705  0.24023534493229515  0.656874926480433  1.0000
  C   C7        1.0  0.4147435755087108  0.35947956507708123  0.6252689544866852  1.0000
  C   C8        1.0  0.32663867510567424  0.3435328968755347  0.6295559755565536  1.0000
  C   C9        1.0  0.27141535219226265  0.46624658946344  0.5970221676092291  1.0000
  N   N2        1.0  0.22702879618835742  0.5648925660847723  0.5708678963203666  1.0000
  C   C10       1.0  0.2923583419802308  0.20816453023588366  0.665498040919438  1.0000
  C   C11       1.0  0.34593056292335556  0.08916684416428744  0.6970430241625925  1.0000
  C   C12       1.0  0.43385259178681557  0.10467543181106498  0.6928725029483347  1.0000
  O   O1        1.0  0.5978796808925684  0.3843449805333774  0.6186885319410904  1.0000
  H   H1        1.0  0.7637236582704096  0.175444298039779  0.6737329939876402  1.0000
  H   H2        1.0  0.6166554522311485  0.04123939223546769  0.709311881262696  1.0000
  H   H3        1.0  0.44067799073328734  0.4648201571050108  0.5972949344925831  1.0000
  H   H4        1.0  0.2243280886369329  0.19465853096110042  0.6691268030798165  1.0000
  H   H5        1.0  0.3192612443308895  0.9845464150927227  0.7248262226987281  1.0000
  H   H6        1.0  0.47353945522885604  0.01042088422613574  0.7178665984534625  1.0000
  C   C13       1.0  0.010149903766885515  0.14373660960457402  0.5704335214505556  1.0000
  C   C14       1.0  0.02016657620681217  0.2269697307906693  0.4515903327047113  1.0000
  C   C15       1.0  0.021752865993398762  0.1619978314094379  0.33398188192463274  1.0000
  C   C16       1.0  0.012430597696351686  0.012471569705440722  0.33238571748263324  1.0000
  C   C17       1.0  0.005053583098828751  0.9276011199801111  0.45027624001815014  1.0000
  C   C18       1.0  0.0047619425043512464  0.9909370600053221  0.5699836343353948  1.0000
  C   C19       1.0  0.016010752249478788  0.9424401839726542  0.20600626842811032  1.0000
  H   H7        1.0  0.9396409803503194  0.22268100929169488  0.871012228751699  1.0000
  H   H8        1.0  0.024969028568593954  0.34352388337618844  0.44937333402702184  1.0000
  H   H9        1.0  0.029358421814148494  0.22878925434860609  0.2438705939125143  1.0000
  H   H10       1.0  0.0014710141983025338  0.8111371527282157  0.4486079213201417  1.0000
  H   H11       1.0  0.9606615859802906  0.693835317093937  0.7740604278531003  1.0000
  H   H12       1.0  0.08264905209506668  0.9121497130545363  0.18494134275956053  1.0000
  H   H13       1.0  0.9913005602449416  0.017533153776475796  0.1249108737773974  1.0000
  H   H14       1.0  0.9769161664038791  0.8437043529742194  0.2110809428069642  1.0000
  C   C20       1.0  0.007455943950623212  0.567336862051905  0.1889604846180939  1.0000
  C   C21       1.0  0.9185914842901645  0.5787829610578925  0.18685656862960887  1.0000
  C   C22       1.0  0.8743805787096574  0.584477384792293  0.06870734290737479  1.0000
  C   C23       1.0  0.9185914684119044  0.5787828670487749  0.9515555747811861  1.0000
  C   C24       1.0  0.007455943492318928  0.5673368545634447  0.9514566512354685  1.0000
  C   C25       1.0  0.05142386578992886  0.5616735764518204  0.07070455281732135  1.0000
  C   C26       1.0  0.7832815109721961  0.5962110801813032  0.06767961638259368  1.0000
  N   N3        1.0  0.7100676250745741  0.6056413138618746  0.0668536252800438  1.0000
  H   H15       1.0  0.04111595140621471  0.5630016778315838  0.5170796304802616  1.0000
  H   H16       1.0  0.88354447265886  0.5832971554331132  0.27688544938040427  1.0000
  H   H17       1.0  0.883544506941829  0.5832970488477931  0.8607359130408438  1.0000
  H   H18       1.0  0.11995293598940959  0.5528467817764224  0.07147767404397531  1.0000
  H   H19       1.0  0.04111592448779855  0.5630014465852629  0.624096930209658  1.0000
  Zn  Zn1       1.0  0.9146052593229796  0.5683744822785046  0.5699292643874674  1.0000
  Zn  Zn2       1.0  0.10029849768288868  0.5662986003374186  0.5704872397525504  1.0000
  C   C27       1.0  0.00749058168046246  0.5615901851212552  0.8073315859616552  1.0000
  C   C28       1.0  0.007415191514514197  0.5730846949238948  0.3330850507309109  1.0000
  C   C29       1.0  0.005776036428380316  0.8307982030937455  0.5648951026404039  1.0000
  C   C30       1.0  0.009129684424513673  0.30387494455261943  0.5755216039988467  1.0000
  O   O2        1.0  0.07787117085685247  0.5742196405386704  0.3816663237977844  1.0000
  O   O3        1.0  0.07797148052504821  0.5588786049184273  0.7591734301365454  1.0000
  O   O4        1.0  0.07658601358643558  0.7762674946509456  0.5634042509252302  1.0000
  O   O5        1.0  0.07925657436531752  0.3568307618336348  0.5774354054694053  1.0000
  O   O6        1.0  0.9356471192725522  0.7778423214922554  0.562981098473373  1.0000
  O   O7        1.0  0.9370325751852484  0.5604551648684888  0.7587502075407639  1.0000
  O   O8        1.0  0.9369322658931457  0.5757961502200866  0.3812415403229119  1.0000
  O   O9        1.0  0.9383176694637594  0.3584072611975351  0.5770107193369878  1.0000
