data_image0
_chemical_formula_structural       NC9NC3OH6C6H6C7H8Zn2C4O8
_chemical_formula_sum              "N2 C29 O9 H20 Zn2"
_cell_length_a       15.78231758774541
_cell_length_b       10.681118228259551
_cell_length_c       9.274345330872308
_cell_angle_alpha    85.12371440556142
_cell_angle_beta     89.64000707228583
_cell_angle_gamma    89.63144314392761

_space_group_name_H-M_alt    "P 1"
_space_group_IT_number       1

loop_
  _space_group_symop_operation_xyz
  'x, y, z'

loop_
  _atom_site_type_symbol
  _atom_site_label
  _atom_site_symmetry_multiplicity
  _atom_site_fract_x
  _atom_site_fract_y
  _atom_site_fract_z
  _atom_site_occupancy
  N   N1        1.0  0.8050459321577006  0.37329168799261647  0.4108227936913651  1.0000
  C   C1        1.0  0.7563938379861564  0.2939820959604471  0.43758121941431516  1.0000
  C   C2        1.0  0.6959904892363391  0.19553961173995615  0.470795319301188  1.0000
  C   C3        1.0  0.7154662820727269  0.07188057024197447  0.5124293372831972  1.0000
  C   C4        1.0  0.6386447996551284  0.01195001118676009  0.5326896569732076  1.0000
  C   C5        1.0  0.5770021888344212  0.10347155177503442  0.5019215912801696  1.0000
  C   C6        1.0  0.48388522462275013  0.08654994463731103  0.5077121113871343  1.0000
  C   C7        1.0  0.43029743979356017  0.19030229277830246  0.47264926115405315  1.0000
  C   C8        1.0  0.342069612806129  0.1764269280907298  0.4774053061271948  1.0000
  C   C9        1.0  0.287789949234672  0.28319806510590606  0.44131312025241476  1.0000
  N   N2        1.0  0.24416198006431744  0.36902829335961584  0.4122982285570145  1.0000
  C   C10       1.0  0.306748039071763  0.058644779544119174  0.517278645401279  1.0000
  C   C11       1.0  0.35940519478474237  0.9551069045093089  0.5522738459896479  1.0000
  C   C12       1.0  0.44744677963473395  0.9686011000008307  0.547647043810644  1.0000
  O   O1        1.0  0.6136246986442209  0.2119371887901409  0.46534913284410684  1.0000
  H   H1        1.0  0.7778639504327276  0.030178678200998732  0.5264133151529757  1.0000
  H   H2        1.0  0.6297637258348516  0.9134092390051247  0.5658836319556775  1.0000
  H   H3        1.0  0.45704214856990616  0.28195772346786585  0.4416154862147874  1.0000
  H   H4        1.0  0.2386136839677115  0.046893082275423215  0.5213044096260475  1.0000
  H   H5        1.0  0.3319311200987434  0.8640780748040675  0.5830959286571249  1.0000
  H   H6        1.0  0.48640880550822857  0.8865917509798945  0.5753748748388343  1.0000
  C   C13       1.0  0.024607982519165628  0.0034099146047399387  0.4115667244629575  1.0000
  C   C14       1.0  0.06128584275451132  0.9277790420313905  0.526303026678435  1.0000
  C   C15       1.0  0.06128583009865207  0.7968968044168613  0.5263029606540006  1.0000
  C   C16       1.0  0.024607968011061798  0.7389003182879152  0.41156678680133774  1.0000
  C   C17       1.0  0.9879604705709361  0.8145188670018488  0.2969252998711165  1.0000
  C   C18       1.0  0.9879604832178759  0.9454111245887358  0.2969253584872298  1.0000
  H   H7        1.0  0.9875165066199972  0.31103623110429734  0.295537853496334  1.0000
  H   H8        1.0  0.09003573043128621  0.9696786293972433  0.6162387107966167  1.0000
  H   H9        1.0  0.09003562637164064  0.741174601981191  0.6162386849541239  1.0000
  H   H10       1.0  0.9592068343825062  0.7726649370195944  0.20697787294865755  1.0000
  H   H11       1.0  0.9592068122255883  0.0010893763465780193  0.20697786113926053  1.0000
  H   H12       1.0  0.9875168203437648  0.4491068797626874  0.29553746415454696  1.0000
  C   C19       1.0  0.026524758642493707  0.37395227226414596  0.987770739683755  1.0000
  C   C20       1.0  0.9760740909140603  0.4626521936583001  0.05286080975869867  1.0000
  C   C21       1.0  0.9205577686187214  0.5413302582592932  0.9706406634075071  1.0000
  C   C22       1.0  0.9135314645223629  0.5321859540958922  0.821672846302687  1.0000
  C   C23       1.0  0.9652959449189787  0.44699432984766707  0.7545829048875716  1.0000
  C   C24       1.0  0.02269115582536707  0.3683579413711586  0.8353627352987227  1.0000
  C   C25       1.0  0.855134011592861  0.6187816819457002  0.7329478361909261  1.0000
  H   H13       1.0  0.1237974444753358  0.10023889179313938  0.11643399529826448  1.0000
  H   H14       1.0  0.9782315388758588  0.4693513584215503  0.16868505193998762  1.0000
  H   H15       1.0  0.8823113010332695  0.6085974197982682  0.023674373278168126  1.0000
  H   H16       1.0  0.9620882050463111  0.4441702467138806  0.6381800686430243  1.0000
  H   H17       1.0  0.09126594361808915  0.18664315570107415  0.5716977122342644  1.0000
  H   H18       1.0  0.8897365279232085  0.7053948666740892  0.6939400969614486  1.0000
  H   H19       1.0  0.799530357885992  0.6448308536911997  0.7983359377701342  1.0000
  H   H20       1.0  0.8313298640391773  0.5727335136331186  0.6382662414206828  1.0000
  Zn  Zn1       1.0  0.9317652968471298  0.37205796433714977  0.4112568994330794  1.0000
  Zn  Zn2       1.0  0.11744253352418887  0.3702517181921987  0.4118759201937512  1.0000
  C   C26       1.0  0.023413918355901675  0.3644264749216688  0.675149720628802  1.0000
  C   C27       1.0  0.025795938964358278  0.3778847670521015  0.1479832474048779  1.0000
  C   C28       1.0  0.024629611857878375  0.5999149506219754  0.4058158526926525  1.0000
  C   C29       1.0  0.02458018175577137  0.14239478687707807  0.4173171920710661  1.0000
  O   O2        1.0  0.09601488407660308  0.3785136238136926  0.20198694370758297  1.0000
  O   O3        1.0  0.0941197014817503  0.3624257771357282  0.621615431323983  1.0000
  O   O4        1.0  0.09510043268975221  0.5525856987578741  0.4041264242170364  1.0000
  O   O5        1.0  0.09503408999894991  0.18835371248055854  0.4194758423957494  1.0000
  O   O6        1.0  0.954173677009875  0.5539559706665866  0.40365697701224823  1.0000
  O   O7        1.0  0.9531929461459898  0.36379755413695314  0.621145907170324  1.0000
  O   O8        1.0  0.9550881366449137  0.3798853686267021  0.2015156844483783  1.0000
  O   O9        1.0  0.9541073420744176  0.18972544762235244  0.41900469133649265  1.0000
