data_image0
_chemical_formula_structural       NC9NC3OH6C8H10C9H8Zn2C4O8
_chemical_formula_sum              "N2 C33 O9 H24 Zn2"
_cell_length_a       15.78231758774541
_cell_length_b       9.275653711864159
_cell_length_c       9.275155815604963
_cell_angle_alpha    86.23881260367573
_cell_angle_beta     90.4446892459172
_cell_angle_gamma    89.08352321082864

_space_group_name_H-M_alt    "P 1"
_space_group_IT_number       1

loop_
  _space_group_symop_operation_xyz
  'x, y, z'

loop_
  _atom_site_type_symbol
  _atom_site_label
  _atom_site_symmetry_multiplicity
  _atom_site_fract_x
  _atom_site_fract_y
  _atom_site_fract_z
  _atom_site_occupancy
  N   N1        1.0  0.783317528061029  0.5555280674942589  0.41785594208019194  1.0000
  C   C1        1.0  0.7353939086932433  0.4646434285332095  0.44429070970702034  1.0000
  C   C2        1.0  0.6758947774152654  0.35183350340676833  0.47710307072088853  1.0000
  C   C3        1.0  0.696505694955538  0.21012530311512356  0.5182325540583395  1.0000
  C   C4        1.0  0.6202350126188633  0.1414486710499403  0.5382482493722203  1.0000
  C   C5        1.0  0.557752652927326  0.2463293502627144  0.5078535377360758  1.0000
  C   C6        1.0  0.4647917753485784  0.22693938846804795  0.5135748985075286  1.0000
  C   C7        1.0  0.410250537429618  0.34583321455976357  0.47893552906079817  1.0000
  C   C8        1.0  0.3221507624979076  0.329933978860393  0.4836348547462863  1.0000
  C   C9        1.0  0.2668898300466603  0.45228700406208366  0.4479784829019007  1.0000
  N   N2        1.0  0.22247303565379084  0.5506430383907941  0.41931393130959704  1.0000
  C   C10       1.0  0.2879121313658989  0.19496397961483347  0.5230273607346085  1.0000
  C   C11       1.0  0.3415208083352092  0.07631600460922838  0.5575999498096975  1.0000
  C   C12       1.0  0.4294378474222886  0.09177845070304524  0.5530283105763656  1.0000
  O   O1        1.0  0.5933790697838689  0.3706256612603891  0.47172369244627355  1.0000
  H   H1        1.0  0.7592857082212779  0.16233573060779083  0.532046457821761  1.0000
  H   H2        1.0  0.6122586276749864  0.028525252018496206  0.5710401520006021  1.0000
  H   H3        1.0  0.4361524821394245  0.4508637612090278  0.448275934461966  1.0000
  H   H4        1.0  0.2198862105027684  0.18149813301544282  0.5270050897205802  1.0000
  H   H5        1.0  0.31488373997406294  0.9720035053142685  0.5880504096189925  1.0000
  H   H6        1.0  0.4691536197492783  0.9978009773796286  0.5804213916684455  1.0000
  C   C13       1.0  0.005272738607198013  0.12965839921900124  0.41724784096024625  1.0000
  C   C14       1.0  0.9849202782029525  0.21218391443756346  0.2886387973412672  1.0000
  C   C15       1.0  0.9569476430356941  0.14620926346322838  0.16558239834074695  1.0000
  C   C16       1.0  0.950584430689622  0.9957259812574696  0.17016651614699607  1.0000
  C   C17       1.0  0.9718412868171047  0.9119790234475744  0.29600097301425343  1.0000
  C   C18       1.0  0.0005260088191403334  0.9765016130251829  0.4199344404178573  1.0000
  C   C19       1.0  0.9366031542875405  0.2360412224658528  0.028188038718134134  1.0000
  C   C20       1.0  0.01553382730249453  0.2562035404761156  0.9357014204707723  1.0000
  H   H7        1.0  0.0829169822821898  0.39505874584181067  0.6172741317227806  1.0000
  H   H8        1.0  0.9889635655218024  0.32892418970283344  0.2847692480737589  1.0000
  H   H9        1.0  0.929950751476648  0.9429006253004624  0.07555997667098979  1.0000
  H   H10       1.0  0.9679195093503848  0.795543954318581  0.295108178783255  1.0000
  H   H11       1.0  0.009360189432289223  0.6793426667701034  0.6576367357583341  1.0000
  H   H12       1.0  0.8869760343058671  0.18317320951802563  0.9653504519717382  1.0000
  H   H13       1.0  0.910978938939827  0.34370962267374017  0.053649018255578884  1.0000
  H   H14       1.0  0.06513100188411669  0.3123606679949327  0.9953698033874838  1.0000
  H   H15       1.0  0.040861337078517135  0.14975993772018614  0.9061283165162157  1.0000
  H   H16       1.0  0.9991882199655965  0.3225782196524898  0.8350532052731783  1.0000
  C   C21       1.0  0.001367196094801626  0.5494526236623289  0.995343202922673  1.0000
  C   C22       1.0  0.9346829520000175  0.6204488637100476  0.06316089055007956  1.0000
  C   C23       1.0  0.8736208258670114  0.7009649153981137  0.9819281834145208  1.0000
  C   C24       1.0  0.8781094746596285  0.7121691309077178  0.8313972036273078  1.0000
  C   C25       1.0  0.9430928236634907  0.6404171499614586  0.7618630321431814  1.0000
  C   C26       1.0  0.004431542657995946  0.5567073799291871  0.8418390629799695  1.0000
  C   C27       1.0  0.8153155668332567  0.7960729361371659  0.7478568786274753  1.0000
  C   C28       1.0  0.7627369608779979  0.8663308846232101  0.6778766243174661  1.0000
  C   C29       1.0  0.6989422729477323  0.9515770196139979  0.5929559433100087  1.0000
  H   H17       1.0  0.19870618667281947  0.43092950898163096  0.1085849651005748  1.0000
  H   H18       1.0  0.9308983049162696  0.6164942213987887  0.17992710894352282  1.0000
  H   H19       1.0  0.8233112296045233  0.7557166916387501  0.036747133236241014  1.0000
  H   H20       1.0  0.9446205032545895  0.6471800279917141  0.6447434448303015  1.0000
  H   H21       1.0  0.1361367828791744  0.47174566230714476  0.5684274647758025  1.0000
  H   H22       1.0  0.7161386483910409  0.9555283395300891  0.4770272668112123  1.0000
  H   H23       1.0  0.6361182625696639  0.9009329541786828  0.6076098002310455  1.0000
  H   H24       1.0  0.6961736407817908  0.06293946863804134  0.6298067740039812  1.0000
  Zn  Zn1       1.0  0.9100483693203982  0.5541145733480985  0.41828499040048395  1.0000
  Zn  Zn2       1.0  0.09574227451794615  0.5520448651096477  0.41889662777643655  1.0000
  C   C30       1.0  0.0038826353626635335  0.5495918882179374  0.6818150251736714  1.0000
  C   C31       1.0  0.0019100265617579826  0.556569348181424  0.15536674691802266  1.0000
  C   C32       1.0  0.0013980952714196526  0.8163810725527827  0.4136831548828501  1.0000
  C   C33       1.0  0.004394513277130363  0.2897784328350115  0.4234986883460248  1.0000
  O   O2        1.0  0.07256210995571988  0.5581660518794298  0.2093042033556134  1.0000
  O   O3        1.0  0.0741679339443495  0.5464232325323104  0.6283413690021671  1.0000
  O   O4        1.0  0.07216069185709606  0.7618588963247683  0.4118229882923039  1.0000
  O   O5        1.0  0.07456928822919462  0.3427303981818106  0.4258224758218765  1.0000
  O   O6        1.0  0.9312212922408972  0.7634290409837299  0.41135914213874614  1.0000
  O   O7        1.0  0.93322852433577  0.5479951089106339  0.6278774514951306  1.0000
  O   O8        1.0  0.9316226944120829  0.5597378631589249  0.20883855282750496  1.0000
  O   O9        1.0  0.9336298731310838  0.34430220007426127  0.4253569333210703  1.0000
