data_image0
_chemical_formula_structural       NC9NC3OH6C9H8C6OCH8Zn2C4O8
_chemical_formula_sum              "N2 C32 O10 H22 Zn2"
_cell_length_a       15.78231758774541
_cell_length_b       9.275152443626249
_cell_length_c       9.273891588657152
_cell_angle_alpha    85.88202133130156
_cell_angle_beta     89.76748324947235
_cell_angle_gamma    90.20707041648352

_space_group_name_H-M_alt    "P 1"
_space_group_IT_number       1

loop_
  _space_group_symop_operation_xyz
  'x, y, z'

loop_
  _atom_site_type_symbol
  _atom_site_label
  _atom_site_symmetry_multiplicity
  _atom_site_fract_x
  _atom_site_fract_y
  _atom_site_fract_z
  _atom_site_occupancy
  N   N1        1.0  0.8122580287436154  0.5553547408283628  0.4074435190577561  1.0000
  C   C1        1.0  0.7631019105120047  0.46444795947710893  0.4344814247494424  1.0000
  C   C2        1.0  0.7020729458960767  0.3516105504536142  0.4680424267165131  1.0000
  C   C3        1.0  0.7207627495785432  0.20986778258093763  0.5101123217483718  1.0000
  C   C4        1.0  0.6435604538339382  0.1411744384362008  0.5305837792455934  1.0000
  C   C5        1.0  0.5824996246253507  0.2460807241644114  0.49949305635797203  1.0000
  C   C6        1.0  0.48927523055998273  0.2266860782435034  0.5053431012653886  1.0000
  C   C7        1.0  0.43634672950821607  0.34560884238174094  0.4699147117020228  1.0000
  C   C8        1.0  0.3480308229691861  0.32970576972266796  0.47471955547281053  1.0000
  C   C9        1.0  0.2944296134560566  0.45208857043376005  0.438251206356125  1.0000
  N   N2        1.0  0.2513470319546061  0.5504685397271505  0.40893392976403287  1.0000
  C   C10       1.0  0.31196090759207135  0.19470295351057731  0.5150077740595962  1.0000
  C   C11       1.0  0.3639601488777496  0.07602610266710319  0.5503677520832861  1.0000
  C   C12       1.0  0.45208739175388085  0.09149227961841477  0.5456934934839313  1.0000
  O   O1        1.0  0.619811480364214  0.3704073289745944  0.46253834482743894  1.0000
  H   H1        1.0  0.7828952806809258  0.16206652486865614  0.5242433648012763  1.0000
  H   H2        1.0  0.6340530677899054  0.028223481716241006  0.5641250717727153  1.0000
  H   H3        1.0  0.4636737739480563  0.45066492387073076  0.4385580937607154  1.0000
  H   H4        1.0  0.24375195061619281  0.18123385604625697  0.5190748713273745  1.0000
  H   H5        1.0  0.33590772028950033  0.9716882433332213  0.5815104700323339  1.0000
  H   H6        1.0  0.49052831499603455  0.9974919391043621  0.5737102422800275  1.0000
  C   C13       1.0  0.02930245412523491  0.12932046136514308  0.40965176048814356  1.0000
  C   C14       1.0  0.999133293199419  0.2112902832078538  0.28709756917942997  1.0000
  C   C15       1.0  0.976847171686122  0.14497094287087386  0.16227753215418517  1.0000
  C   C16       1.0  0.9843819262199989  0.995502168682249  0.15754060212227294  1.0000
  C   C17       1.0  0.012897625090529274  0.911853258503407  0.27905430486033267  1.0000
  C   C18       1.0  0.03431059164788319  0.9764917967444295  0.40673816285213116  1.0000
  C   C19       1.0  0.9618439658120991  0.927437424076478  0.02828343900956276  1.0000
  C   C20       1.0  0.9429737226067507  0.8704156837918484  0.9200508369794553  1.0000
  C   C21       1.0  0.9200784202357214  0.8012178822186282  0.7887295577280131  1.0000
  H   H7        1.0  0.15011756522047026  0.21222581510853056  0.6979210220688643  1.0000
  H   H8        1.0  0.9946716616751885  0.3278533257182552  0.28662903735176815  1.0000
  H   H9        1.0  0.9544956398276204  0.21061681334040983  0.06885098298176451  1.0000
  H   H10       1.0  0.01647783709154771  0.7954670937039193  0.27504555720624535  1.0000
  H   H11       1.0  0.11292581138489055  0.682094741908623  0.6038910202746008  1.0000
  H   H12       1.0  0.9355237632184199  0.6844457229077775  0.8022475177432229  1.0000
  H   H13       1.0  0.8511827454952641  0.8143890060671212  0.7687634060998016  1.0000
  H   H14       1.0  0.9561597285720894  0.8523227565744735  0.6955539776934083  1.0000
  C   C22       1.0  0.0331719278866649  0.5490703896221456  0.9849374976944443  1.0000
  C   C23       1.0  0.10291703285299714  0.609224785651092  0.05353717518192136  1.0000
  C   C24       1.0  0.16791992824505697  0.6802038724411854  0.9737000501131541  1.0000
  C   C25       1.0  0.1634107828136706  0.6913874404780429  0.8222056214678606  1.0000
  C   C26       1.0  0.09544052446748852  0.6303398233340212  0.7522727917968908  1.0000
  C   C27       1.0  0.030441091717551494  0.5567417816157352  0.8314524388373279  1.0000
  O   O2        1.0  0.2353407041941702  0.7386080096707668  0.04893088947833757  1.0000
  C   C28       1.0  0.3055591949727172  0.8137458596980793  0.9818302563945389  1.0000
  H   H15       1.0  0.8311206811751397  0.4627175160582595  0.09557538555146028  1.0000
  H   H16       1.0  0.10611165776231002  0.6041599585772544  0.1704993667518202  1.0000
  H   H17       1.0  0.21254301044084678  0.7459261833602955  0.7572597144841624  1.0000
  H   H18       1.0  0.09480083469851919  0.6377817073871415  0.6351637274616699  1.0000
  H   H19       1.0  0.8956625728837251  0.4928714560150653  0.555778426891937  1.0000
  H   H20       1.0  0.28339322966076175  0.9116119485498102  0.9170217742254971  1.0000
  H   H21       1.0  0.3404631934829203  0.7417632906145679  0.9117837079352356  1.0000
  H   H22       1.0  0.34913348287244883  0.8477419401824244  0.06670243597785608  1.0000
  Zn  Zn1       1.0  0.9389695769743922  0.5539409110702453  0.4078819491735113  1.0000
  Zn  Zn2       1.0  0.12463534762482209  0.5518707032982391  0.4085073225253697  1.0000
  C   C29       1.0  0.03092143168216288  0.5495453187836583  0.6714627638506165  1.0000
  C   C30       1.0  0.03268553068443203  0.556268094295391  0.1449266498849553  1.0000
  C   C31       1.0  0.03337810899988236  0.8163063511239563  0.4015453102855744  1.0000
  C   C32       1.0  0.030228779518999493  0.2895053303104256  0.4148441860404575  1.0000
  O   O3        1.0  0.10298144649491103  0.5578917836656543  0.19885781844960904  1.0000
  O   O4        1.0  0.10154153468740112  0.5463492976657687  0.6180058280240248  1.0000
  O   O5        1.0  0.10352437803202519  0.7617622291067985  0.40004556620192  1.0000
  O   O6        1.0  0.10099854020476529  0.3424788622704389  0.4168179719527805  1.0000
  O   O7        1.0  0.9626063210358674  0.7633327528060072  0.3995712995251042  1.0000
  O   O8        1.0  0.9606234881803746  0.5479215537176072  0.6175314785357529  1.0000
  O   O9        1.0  0.9620634053373357  0.5594639737462863  0.19838173623353517  1.0000
  O   O10       1.0  0.9600804986341299  0.34405104301321865  0.41634199783464365  1.0000
