data_image0
_chemical_formula_structural       NC9NC3OH6C6BrH5C6NH7Zn2C4O8
_chemical_formula_sum              "N3 C28 O9 H18 Br1 Zn2"
_cell_length_a       15.78231758774541
_cell_length_b       10.302969083221269
_cell_length_c       9.274774538082514
_cell_angle_alpha    85.06360997403345
_cell_angle_beta     90.43038941912484
_cell_angle_gamma    89.63144763104107

_space_group_name_H-M_alt    "P 1"
_space_group_IT_number       1

loop_
  _space_group_symop_operation_xyz
  'x, y, z'

loop_
  _atom_site_type_symbol
  _atom_site_label
  _atom_site_symmetry_multiplicity
  _atom_site_fract_x
  _atom_site_fract_y
  _atom_site_fract_z
  _atom_site_occupancy
  N   N1        1.0  0.7921560193408377  0.42533051964601665  0.41072724114020764  1.0000
  C   C1        1.0  0.743720961460346  0.34308250237579974  0.43748728700216266  1.0000
  C   C2        1.0  0.6835870106611532  0.2409927176911979  0.47070339789869453  1.0000
  C   C3        1.0  0.7034004949812066  0.11275219122169644  0.5123399367421915  1.0000
  C   C4        1.0  0.6267433430385267  0.050601159901048076  0.5326014831073684  1.0000
  C   C5        1.0  0.5648511739488276  0.14551346540711685  0.501831554438638  1.0000
  C   C6        1.0  0.4717811763769715  0.12796482804152376  0.5076224250953087  1.0000
  C   C7        1.0  0.4179089984640834  0.2355612663243003  0.47255745195043874  1.0000
  C   C8        1.0  0.3297197475378807  0.22117174176823906  0.47731378484302  1.0000
  C   C9        1.0  0.27514734198967417  0.3318988263698819  0.44121941373980866  1.0000
  N   N2        1.0  0.2312840344336785  0.4209091279150865  0.41220276531689914  1.0000
  C   C10       1.0  0.2947215845419914  0.09902561895245543  0.5171895382433649  1.0000
  C   C11       1.0  0.3476625846364138  0.991651595169878  0.5521868576447562  1.0000
  C   C12       1.0  0.4356666417073001  0.005645827530083691  0.547559775371181  1.0000
  O   O1        1.0  0.6011770463285735  0.25799773726350983  0.4652568816409568  1.0000
  H   H1        1.0  0.7659115866930803  0.06950532991384661  0.526324761349011  1.0000
  H   H2        1.0  0.6181315039285312  0.9484095005027313  0.5657974679125739  1.0000
  H   H3        1.0  0.4444019937826242  0.33061264946059254  0.4415217980783033  1.0000
  H   H4        1.0  0.226619882225372  0.08683845799231227  0.5212155461795192  1.0000
  H   H5        1.0  0.3204385063824446  0.8972500289129338  0.5830108064279644  1.0000
  H   H6        1.0  0.4748535666802123  0.9205979668936672  0.5752892851981521  1.0000
  C   C13       1.0  0.011724084549155078  0.04187223079643965  0.41147129046580266  1.0000
  C   C14       1.0  0.09965934358380335  0.037882488766864286  0.43608964584460796  1.0000
  C   C15       1.0  0.14327996443984947  0.9189655127968255  0.44830148800545255  1.0000
  C   C16       1.0  0.09965940913080362  0.8028001306544427  0.4360893722133592  1.0000
  C   C17       1.0  0.01172409723344181  0.8043572487759733  0.41147119482633765  1.0000
  C   C18       1.0  0.9681811052007131  0.9244880847061504  0.3992809631380583  1.0000
  Br  Br1       1.0  0.26288705514309885  0.9151931290277565  0.481787080032805  1.0000
  H   H7        1.0  0.9786261002581649  0.37067560271822675  0.40220452554625385  1.0000
  H   H8        1.0  0.1346647080034642  0.1267777400176704  0.4458899064626669  1.0000
  H   H9        1.0  0.13466480537667325  0.7116968099940111  0.44588925667379553  1.0000
  H   H10       1.0  0.9003620522651703  0.9266270309769719  0.38029453359378973  1.0000
  H   H11       1.0  0.9786258652471005  0.4776415961541451  0.4022066574110672  1.0000
  C   C19       1.0  0.01020342593137702  0.4264505953619375  0.9876498232172444  1.0000
  C   C20       1.0  0.07024389904635342  0.5024598672158167  0.054588062378462476  1.0000
  C   C21       1.0  0.13408576939118633  0.56773641897863  0.9740376493924456  1.0000
  C   C22       1.0  0.13840422883682346  0.5572974608499961  0.8250747456441085  1.0000
  C   C23       1.0  0.078635606033016  0.48414542607655187  0.756434857022886  1.0000
  C   C24       1.0  0.013244749513611653  0.41977886621770755  0.8352926693643985  1.0000
  N   N3        1.0  0.19509898814162652  0.643555278081978  0.043984402194512384  1.0000
  H   H12       1.0  0.8835476822471707  0.17393547003019383  0.1131445974024965  1.0000
  H   H13       1.0  0.06871865625697127  0.5086325976287822  0.17060306612541698  1.0000
  H   H14       1.0  0.1876949487699624  0.6069614010669893  0.7617095882402825  1.0000
  H   H15       1.0  0.08241403432940353  0.48049607265482863  0.640274503608913  1.0000
  H   H16       1.0  0.9253353311754767  0.253679582419593  0.5689155273415323  1.0000
  H   H17       1.0  0.1926384213133263  0.6517215017771181  0.15534605650978195  1.0000
  H   H18       1.0  0.24316669704842497  0.692210590824285  0.9849038201763385  1.0000
  Zn  Zn1       1.0  0.9188789050436034  0.4240510680817151  0.4111613731550854  1.0000
  Zn  Zn2       1.0  0.10456116256946091  0.4221778905219582  0.4117804313898348  1.0000
  C   C25       1.0  0.012667988722543377  0.41586798129919456  0.6750700173819328  1.0000
  C   C26       1.0  0.010774107043287406  0.43036259383241715  0.14787193557842238  1.0000
  C   C27       1.0  0.011699099010239022  0.6602766744977668  0.40571995464409727  1.0000
  C   C28       1.0  0.011742933671268219  0.18595234086153511  0.4172220750511979  1.0000
  O   O2        1.0  0.08143108187742243  0.43095897119613324  0.20187886950837908  1.0000
  O   O3        1.0  0.08293954946486815  0.41384892936943607  0.6215325188671013  1.0000
  O   O4        1.0  0.08215621424543262  0.6112120378679993  0.4040304343427603  1.0000
  O   O5        1.0  0.0822143533478108  0.23359587347576305  0.41938084560743816  1.0000
  O   O6        1.0  0.9412256509009845  0.6126330857686066  0.4035609587186362  1.0000
  O   O7        1.0  0.9420089858404744  0.4152715376830498  0.621062966289192  1.0000
  O   O8        1.0  0.9405005120834741  0.43238154792524686  0.20140758172090312  1.0000
  O   O9        1.0  0.9412837839386405  0.2350184400673807  0.4189096660263991  1.0000
