data_image0
_chemical_formula_structural       NC9NC3OH6C6NCOH7C7OH6Zn2C4O8
_chemical_formula_sum              "N3 C30 O11 H19 Zn2"
_cell_length_a       15.78231758774541
_cell_length_b       10.299619329790078
_cell_length_c       9.274081674992354
_cell_angle_alpha    86.07708878693475
_cell_angle_beta     89.75780300142802
_cell_angle_gamma    89.65730562172189

_space_group_name_H-M_alt    "P 1"
_space_group_IT_number       1

loop_
  _space_group_symop_operation_xyz
  'x, y, z'

loop_
  _atom_site_type_symbol
  _atom_site_label
  _atom_site_symmetry_multiplicity
  _atom_site_fract_x
  _atom_site_fract_y
  _atom_site_fract_z
  _atom_site_occupancy
  N   N1        1.0  0.8036326039934745  0.4004472981128828  0.4129762344221932  1.0000
  C   C1        1.0  0.7549871579360302  0.3185998974791542  0.4396916629097767  1.0000
  C   C2        1.0  0.6945920615599487  0.2170073816245206  0.47285239228859166  1.0000
  C   C3        1.0  0.7140781191308734  0.08939009848888535  0.5144194788135237  1.0000
  C   C4        1.0  0.6372617067673574  0.027542435683861832  0.5346472571586522  1.0000
  C   C5        1.0  0.5756115516718402  0.12199420092085256  0.5039286709610744  1.0000
  C   C6        1.0  0.4824960996638277  0.10453233571284781  0.5097099153694178  1.0000
  C   C7        1.0  0.42889955135344293  0.2116037709448475  0.47470338599425643  1.0000
  C   C8        1.0  0.3406729734963482  0.19728552430308532  0.47945181515252844  1.0000
  C   C9        1.0  0.2863842809172648  0.3074721845627395  0.44341760029545974  1.0000
  N   N2        1.0  0.24274905194272353  0.3960480318571571  0.4144493116106831  1.0000
  C   C10       1.0  0.30536142801581423  0.07573649983322928  0.5192611311006747  1.0000
  C   C11       1.0  0.35802733466510583  0.9688864708422735  0.5542001212098535  1.0000
  C   C12       1.0  0.44606770307343396  0.9828113608798889  0.5495807273969577  1.0000
  O   O1        1.0  0.6122249958708215  0.23393094656624336  0.46741498777672996  1.0000
  H   H1        1.0  0.7764791840833508  0.04635251657699291  0.5283809557540797  1.0000
  H   H2        1.0  0.6283888321148327  0.9258476921907592  0.5677878750315561  1.0000
  H   H3        1.0  0.45563645033053635  0.30619042206813885  0.4437194391251118  1.0000
  H   H4        1.0  0.23722812814515104  0.06360966996874495  0.5232804480796662  1.0000
  H   H5        1.0  0.3305610169283597  0.8749464669515374  0.5849727158683065  1.0000
  H   H6        1.0  0.4850366708575987  0.8981786871364935  0.5772640242870537  1.0000
  C   C13       1.0  0.023082615419111274  0.016879969405942497  0.4136748783980031  1.0000
  C   C14       1.0  0.982669945063984  0.024291269745572608  0.2786385883749847  1.0000
  C   C15       1.0  0.9635743268761962  0.9112765804601419  0.20960411809241286  1.0000
  C   C16       1.0  0.9829219056508568  0.7891311807066926  0.27875039273988556  1.0000
  C   C17       1.0  0.023307048871229474  0.7796054381797161  0.41376317023970155  1.0000
  C   C18       1.0  0.043460081575149356  0.8940912967083626  0.48019076934969407  1.0000
  N   N3        1.0  0.9210407219714718  0.9226789607222025  0.07242786962784908  1.0000
  C   C19       1.0  0.9347461918973616  0.8369510669187632  0.9590625039474987  1.0000
  O   O2        1.0  0.9942108456555268  0.754679659783251  0.9653214282792839  1.0000
  H   H7        1.0  0.09850580661013075  0.21011554912421482  0.6691039514642416  1.0000
  H   H8        1.0  0.9664286173896256  0.11813124058588431  0.22575581167837067  1.0000
  H   H9        1.0  0.9649718684248669  0.7015165810272774  0.22883167366203083  1.0000
  H   H10       1.0  0.07462374752951684  0.8875023110154291  0.5842806808171699  1.0000
  H   H11       1.0  0.03766843744722803  0.4484501012704659  0.4666029893660879  1.0000
  H   H12       1.0  0.8818997818295597  0.003484856036513051  0.048952508401516326  1.0000
  H   H13       1.0  0.8948420358037509  0.8454600215122432  0.8642773479108303  1.0000
  C   C20       1.0  0.024623808276601933  0.39482397850011686  0.9904536831456401  1.0000
  C   C21       1.0  0.09345465222075844  0.45065448225701954  0.05921714342078377  1.0000
  C   C22       1.0  0.15749002020299452  0.5161137958248507  0.9789565869321399  1.0000
  C   C23       1.0  0.1526774610730961  0.5260949703429725  0.827818880677031  1.0000
  C   C24       1.0  0.08562193238320903  0.4695061939060472  0.7578584636190051  1.0000
  C   C25       1.0  0.02176589197418677  0.4016613852549473  0.8369842914053063  1.0000
  C   C26       1.0  0.22829729540199817  0.5745097571258238  0.05464582407731999  1.0000
  O   O3        1.0  0.2866267709273589  0.6344314005025555  0.9855087109644187  1.0000
  H   H14       1.0  0.8238421616244742  0.3124730572915986  0.10113925498301879  1.0000
  H   H15       1.0  0.09625292086244808  0.4458057569151994  0.17626531435428672  1.0000
  H   H16       1.0  0.20120663226709823  0.5766146020260763  0.7633796648005142  1.0000
  H   H17       1.0  0.08483799220275956  0.4762240268087681  0.6407828444326937  1.0000
  H   H18       1.0  0.8879227063084554  0.34086763724455227  0.5614438215817867  1.0000
  H   H19       1.0  0.23076502541254595  0.56622884021722  0.1715603442450826  1.0000
  Zn  Zn1       1.0  0.9303520926908273  0.3991743631087783  0.4134096489606123  1.0000
  Zn  Zn2       1.0  0.11602949185485079  0.39731046259230696  0.41402767845200095  1.0000
  C   C27       1.0  0.02230268126071322  0.3951953342350898  0.6769713094309786  1.0000
  C   C28       1.0  0.024080930881015483  0.40129111086931135  0.15046616638976906  1.0000
  C   C29       1.0  0.023279681002152275  0.635387713783433  0.40800273571138956  1.0000
  C   C30       1.0  0.02310386706224188  0.16109717228001674  0.41943481656295867  1.0000
  O   O4        1.0  0.09436233991727772  0.40274853331468985  0.20440235581405597  1.0000
  O   O5        1.0  0.09294612301982874  0.39232227135475584  0.6235037750610584  1.0000
  O   O6        1.0  0.09373410772401014  0.5862806771277935  0.4063097457797229  1.0000
  O   O7        1.0  0.09357429222156743  0.20879013659497092  0.42159627681352463  1.0000
  O   O8        1.0  0.952807228961553  0.5876946897435247  0.40584105038060403  1.0000
  O   O9        1.0  0.9520192449721486  0.39373784364884856  0.6230350029898544  1.0000
  O   O10       1.0  0.9534354677630837  0.4041640463555167  0.20393185080482334  1.0000
  O   O11       1.0  0.9526474196963446  0.21020564121988938  0.42112587986767425  1.0000
