data_image0
_chemical_formula_structural       NC9NC3OH6C6ClH5C6NCOH7Zn2C4O8
_chemical_formula_sum              "N3 C29 O10 H18 Cl1 Zn2"
_cell_length_a       15.78231758774541
_cell_length_b       10.30297070629231
_cell_length_c       10.29962270195845
_cell_angle_alpha    85.57966836144159
_cell_angle_beta     90.10253899755935
_cell_angle_gamma    89.63144908567993

_space_group_name_H-M_alt    "P 1"
_space_group_IT_number       1

loop_
  _space_group_symop_operation_xyz
  'x, y, z'

loop_
  _atom_site_type_symbol
  _atom_site_label
  _atom_site_symmetry_multiplicity
  _atom_site_fract_x
  _atom_site_fract_y
  _atom_site_fract_z
  _atom_site_occupancy
  N   N1        1.0  0.7975559851298379  0.4123497548180448  0.5699631496614557  1.0000
  C   C1        1.0  0.7490300020858707  0.33032031641431603  0.5940419862240061  1.0000
  C   C2        1.0  0.6887831897344842  0.2285018444135931  0.6239300256411062  1.0000
  C   C3        1.0  0.7084552016056026  0.10060140961371133  0.6613948124366182  1.0000
  C   C4        1.0  0.6317292050738839  0.038615876712016384  0.6796262633990577  1.0000
  C   C5        1.0  0.5699415859151274  0.13327685015031387  0.6519393122618351  1.0000
  C   C6        1.0  0.4768519121531903  0.1157755131827023  0.6571499695877698  1.0000
  C   C7        1.0  0.42309887784537686  0.2230855371100764  0.6255983137187746  1.0000
  C   C8        1.0  0.3348934658765099  0.2087348627422947  0.6298780882673312  1.0000
  C   C9        1.0  0.2804437016165729  0.31916712476343845  0.5974001744447248  1.0000
  N   N2        1.0  0.23667898669517473  0.40794041530450587  0.5712908344529846  1.0000
  C   C10       1.0  0.29975981323199763  0.08691444920076496  0.6657585107226942  1.0000
  C   C11       1.0  0.35258189959517383  0.9798262871682683  0.6972492913829029  1.0000
  C   C12       1.0  0.4406016785415853  0.9937827250725012  0.693085817253035  1.0000
  O   O1        1.0  0.6063917315547943  0.24546237622422495  0.6190292203693095  1.0000
  H   H1        1.0  0.7709187757388953  0.057468777867160314  0.6739784345586677  1.0000
  H   H2        1.0  0.62300457279329  0.9366953656330992  0.7094961932259656  1.0000
  H   H3        1.0  0.44969732596339124  0.317883417821232  0.5976722614880323  1.0000
  H   H4        1.0  0.23164443136685633  0.07476017306503668  0.669381134849713  1.0000
  H   H5        1.0  0.32525308787231544  0.8856764941071944  0.7249848502092169  1.0000
  H   H6        1.0  0.47969438431373923  0.9089613619558485  0.7180369828521951  1.0000
  C   C13       1.0  0.017121515815176513  0.028897607576551687  0.5706325971072883  1.0000
  C   C14       1.0  0.10462074270043997  0.024884290393274888  0.5959105827790321  1.0000
  C   C15       1.0  0.14803552367050732  0.9059361455840143  0.608452753812396  1.0000
  C   C16       1.0  0.10462074201107141  0.7897763217099162  0.5959105217014442  1.0000
  C   C17       1.0  0.01712152487357388  0.7913825493230803  0.5706326714750758  1.0000
  C   C18       1.0  0.9737984306470564  0.9115313143358066  0.5581168688944385  1.0000
  Cl  Cl1       1.0  0.25734290524817616  0.902426073137188  0.6400308910008718  1.0000
  H   H7        1.0  0.9841620893878521  0.3577124719522393  0.561110095570079  1.0000
  H   H8        1.0  0.13942131169031202  0.11381336108638584  0.6059641405160048  1.0000
  H   H9        1.0  0.13942127816214533  0.6986121685638159  0.605964047111702  1.0000
  H   H10       1.0  0.9063163715477682  0.9136981791244629  0.5386216864099651  1.0000
  H   H11       1.0  0.9841620853075409  0.4646845053988198  0.5611103407444711  1.0000
  C   C19       1.0  0.017040900469011078  0.4100143083327654  0.18927558222336538  1.0000
  C   C20       1.0  0.9282568530528873  0.42092122562455314  0.18691360999705342  1.0000
  C   C21       1.0  0.8836833228219256  0.428540375671004  0.06876158206444583  1.0000
  C   C22       1.0  0.928444206010625  0.421197609634246  0.9517419839308996  1.0000
  C   C23       1.0  0.017202156981781513  0.4102658082748565  0.9519895956436235  1.0000
  C   C24       1.0  0.06101950269527445  0.40525697479581835  0.07125865333957226  1.0000
  N   N3        1.0  0.792720655179879  0.43768676679580354  0.07036919666369967  1.0000
  C   C25       1.0  0.7430116483786656  0.5090467923946054  0.9721453840013412  1.0000
  O   O2        1.0  0.7771442489111191  0.5837499475763266  0.8851386348415122  1.0000
  H   H12       1.0  0.18444963820786375  0.3880514579394141  0.4010897946447163  1.0000
  H   H13       1.0  0.8932710901396521  0.42465082000603505  0.27696349409878174  1.0000
  H   H14       1.0  0.8940543151837567  0.4212978556771618  0.8607857811387416  1.0000
  H   H15       1.0  0.12946329455075944  0.39686572999256975  0.07220206773509541  1.0000
  H   H16       1.0  0.05118661782091882  0.4041015633000591  0.6247896143676805  1.0000
  H   H17       1.0  0.7605469956075386  0.3976433619833122  0.15236923482625797  1.0000
  H   H18       1.0  0.6746785565560275  0.5016357805725931  0.9748336159930386  1.0000
  Zn  Zn1       1.0  0.9242773957417165  0.41107384928042623  0.5703537840455648  1.0000
  Zn  Zn2       1.0  0.10995754983478356  0.40920572824841295  0.5709108160567347  1.0000
  C   C26       1.0  0.017169785288627448  0.4050462609323917  0.8078203447897405  1.0000
  C   C27       1.0  0.017067187936388173  0.41523493433631  0.33344438885786865  1.0000
  C   C28       1.0  0.01711608221862093  0.6472549726855512  0.565457595796818  1.0000
  C   C29       1.0  0.01712082766131995  0.1730246634378425  0.5758072068971307  1.0000
  O   O3        1.0  0.08754066104844127  0.4162724179814672  0.38204014810775844  1.0000
  O   O4        1.0  0.08762325270783022  0.402589937115599  0.7596469861130668  1.0000
  O   O5        1.0  0.0875789371879312  0.5981765450056604  0.5639373486949819  1.0000
  O   O6        1.0  0.08758491318769512  0.2206858199840236  0.5777496879641333  1.0000
  O   O7        1.0  0.9466499690252798  0.5995937581837243  0.5635149119412477  1.0000
  O   O8        1.0  0.9466942845267288  0.40400871007787953  0.7592244801160744  1.0000
  O   O9        1.0  0.9466116925935822  0.4176911451867764  0.3816160807589115  1.0000
  O   O10       1.0  0.946655944749956  0.2221045379356239  0.5773257179800781  1.0000
