data_image0
_chemical_formula_structural       NC9NC3OH6C7OH6C9H8Zn2C4O8
_chemical_formula_sum              "N2 C32 O10 H20 Zn2"
_cell_length_a       15.78231758774541
_cell_length_b       9.274078303013075
_cell_length_c       9.275155815604963
_cell_angle_alpha    86.23195099776972
_cell_angle_beta     90.4446892459172
_cell_angle_gamma    89.04960325712263

_space_group_name_H-M_alt    "P 1"
_space_group_IT_number       1

loop_
  _space_group_symop_operation_xyz
  'x, y, z'

loop_
  _atom_site_type_symbol
  _atom_site_label
  _atom_site_symmetry_multiplicity
  _atom_site_fract_x
  _atom_site_fract_y
  _atom_site_fract_z
  _atom_site_occupancy
  N   N1        1.0  0.7827752067688352  0.5558201406761536  0.417661056871782  1.0000
  C   C1        1.0  0.734883273537656  0.46491843679275346  0.44410721103169504  1.0000
  C   C2        1.0  0.6754234724560567  0.3520873299502958  0.47693370550045167  1.0000
  C   C3        1.0  0.6960837953242708  0.21035252186813636  0.5180809428294404  1.0000
  C   C4        1.0  0.6198370564963139  0.1416629947592256  0.5381052423337773  1.0000
  C   C5        1.0  0.5573181310708208  0.24656336685593905  0.5076973906627766  1.0000
  C   C6        1.0  0.46436401363311847  0.2271697643118984  0.5134211807164935  1.0000
  C   C7        1.0  0.4097813244187765  0.34608591446116077  0.478766915589923  1.0000
  C   C8        1.0  0.32168709261690714  0.3301836934473772  0.48346823322009325  1.0000
  C   C9        1.0  0.2663835028506825  0.45255969222192105  0.44779653230816185  1.0000
  N   N2        1.0  0.2219324174843829  0.5509341943369133  0.4191196581248049  1.0000
  C   C10       1.0  0.2874955175978209  0.19518835160725811  0.5228776490006473  1.0000
  C   C11       1.0  0.3411455601486761  0.07651809870624926  0.5574651029539854  1.0000
  C   C12       1.0  0.4290572083888004  0.09198344810083237  0.5528915264994021  1.0000
  O   O1        1.0  0.5929012131027444  0.3708830163068433  0.4715519728397757  1.0000
  H   H1        1.0  0.7588804700076072  0.16255397616848644  0.5319008339363194  1.0000
  H   H2        1.0  0.6119000413174757  0.02871837270162203  0.570911292636195  1.0000
  H   H3        1.0  0.4356466511446527  0.4511361821341704  0.4480941621800083  1.0000
  H   H4        1.0  0.21947429148464773  0.18171997659790473  0.5268570650627804  1.0000
  H   H5        1.0  0.3145448594305134  0.9721860132114533  0.5879286316133965  1.0000
  H   H6        1.0  0.4688057451421189  0.9979883291301054  0.5802963816120588  1.0000
  C   C13       1.0  0.004878893060078493  0.12987050913203246  0.41710631107263785  1.0000
  C   C14       1.0  0.9880236736575494  0.21240180965435185  0.2869441769871466  1.0000
  C   C15       1.0  0.9638647468595275  0.14649025552816508  0.16168084340701583  1.0000
  C   C16       1.0  0.9563355810177585  0.9959720868302755  0.1664990316609738  1.0000
  C   C17       1.0  0.974134670968442  0.9123485848045303  0.29398193404701023  1.0000
  C   C18       1.0  0.9998369423942325  0.9768727442978832  0.4196868812502621  1.0000
  C   C19       1.0  0.9459220636133963  0.23645234410054905  0.02748436729721182  1.0000
  O   O2        1.0  0.9237308195075932  0.1804193699682517  0.9132916763251884  1.0000
  H   H7        1.0  0.003556039211162876  0.20956921144707907  0.7719612703383287  1.0000
  H   H8        1.0  0.9918027118386372  0.32919860559752734  0.2838481267192985  1.0000
  H   H9        1.0  0.9374552624297926  0.9425111300420871  0.07128709997994465  1.0000
  H   H10       1.0  0.9697148624870395  0.7959539711639345  0.2931962633027443  1.0000
  H   H11       1.0  0.0026537832666659877  0.680003912539363  0.6580559770369814  1.0000
  H   H12       1.0  0.9517663479288101  0.35268886319428194  0.02598930089771012  1.0000
  C   C20       1.0  0.0008269929531050657  0.5497435560906441  0.9951490788796584  1.0000
  C   C21       1.0  0.9341179966385132  0.6207531267224691  0.06295787170321887  1.0000
  C   C22       1.0  0.8730277992864105  0.7012842964787342  0.981715077068861  1.0000
  C   C23       1.0  0.8775125418270219  0.7124906157439328  0.8311826935552094  1.0000
  C   C24       1.0  0.9425209065331637  0.6407251623121428  0.7616575115583517  1.0000
  C   C25       1.0  0.00388881020880838  0.556999674544268  0.841644030020738  1.0000
  C   C26       1.0  0.8146893816708319  0.7964101751419352  0.7476318566199689  1.0000
  C   C27       1.0  0.7620862808946783  0.8666813155870292  0.6776428000033881  1.0000
  C   C28       1.0  0.6982618726430321  0.9519434567884486  0.5927114388859853  1.0000
  H   H13       1.0  0.19820730558120436  0.4311981869588972  0.10840569029261382  1.0000
  H   H14       1.0  0.9303347283063116  0.6167977418691841  0.17972458555624748  1.0000
  H   H15       1.0  0.8226991142947239  0.7560463531674291  0.036527167283514794  1.0000
  H   H16       1.0  0.9440462283058287  0.6474893101718191  0.6445370769544958  1.0000
  H   H17       1.0  0.13562367159173316  0.4720220041151215  0.5682430762931263  1.0000
  H   H18       1.0  0.7154568704931186  0.955895518622738  0.47678226734385154  1.0000
  H   H19       1.0  0.6354555188766203  0.9012898821879538  0.6073716407772296  1.0000
  H   H20       1.0  0.6954544149306291  0.06332681574366594  0.6295483174729268  1.0000
  Zn  Zn1       1.0  0.9095065408306089  0.5544063811257607  0.418090282282483  1.0000
  Zn  Zn2       1.0  0.09520116761388042  0.5523362842692687  0.41870217896299544  1.0000
  C   C29       1.0  0.0033423836675943175  0.5498828467952128  0.6816208836828197  1.0000
  C   C30       1.0  0.0013673422361357712  0.5568616168790217  0.1551717312521761  1.0000
  C   C31       1.0  0.0007648298543765364  0.816722124707661  0.4134555885590574  1.0000
  C   C32       1.0  0.003944843276983079  0.2900206076299825  0.42333709772998973  1.0000
  O   O3        1.0  0.07201886895328014  0.5584586203815376  0.20910898764584696  1.0000
  O   O4        1.0  0.07362878697344577  0.5467135961480627  0.6281476244981241  1.0000
  O   O5        1.0  0.07154643512120984  0.7621897111423557  0.41160225281001117  1.0000
  O   O6        1.0  0.07410115698821818  0.34298251548397896  0.4256542510890948  1.0000
  O   O7        1.0  0.9306064880877719  0.7637601506189777  0.4111382099399967  1.0000
  O   O8        1.0  0.9326888293438779  0.5482857676692028  0.6276835100576716  1.0000
  O   O9        1.0  0.9310789054113519  0.560030726791626  0.2086431401924782  1.0000
  O   O10       1.0  0.933161193895088  0.3445546125052603  0.42518851166420557  1.0000
