data_image0
_chemical_formula_structural       NC9NC3OH6C6NCH9C6NCH9Zn2C4O8
_chemical_formula_sum              "N4 C30 O9 H24 Zn2"
_cell_length_a       15.78231758774541
_cell_length_b       9.273386996610926
_cell_length_c       9.273390368590327
_cell_angle_alpha    86.07317832945773
_cell_angle_beta     90.0787864382203
_cell_angle_gamma    89.03191128213776

_space_group_name_H-M_alt    "P 1"
_space_group_IT_number       1

loop_
  _space_group_symop_operation_xyz
  'x, y, z'

loop_
  _atom_site_type_symbol
  _atom_site_label
  _atom_site_symmetry_multiplicity
  _atom_site_fract_x
  _atom_site_fract_y
  _atom_site_fract_z
  _atom_site_occupancy
  N   N1        1.0  0.788453256970864  0.5531780349610407  0.4102807516268152  1.0000
  C   C1        1.0  0.7404786512975887  0.462295023720948  0.43715690740344737  1.0000
  C   C2        1.0  0.6809162321520384  0.34948711979308  0.4705171383912503  1.0000
  C   C3        1.0  0.7014479829061881  0.2077812768583347  0.5123348367570137  1.0000
  C   C4        1.0  0.6251386206442091  0.13910595774423373  0.5326840660868217  1.0000
  C   C5        1.0  0.5627146803419958  0.24398498664285095  0.5017799954968685  1.0000
  C   C6        1.0  0.46974261712440907  0.22459553981720193  0.5075955265813137  1.0000
  C   C7        1.0  0.4152682969036015  0.3434871176758909  0.47237873918368734  1.0000
  C   C8        1.0  0.3271593199905585  0.32758832061386567  0.47715528208300184  1.0000
  C   C9        1.0  0.27196728682085547  0.449939013311075  0.4409046922261257  1.0000
  N   N2        1.0  0.227605883959944  0.5482931696627655  0.41176246604961997  1.0000
  C   C10       1.0  0.2928444610614995  0.1926210162313895  0.5172032825891251  1.0000
  C   C11       1.0  0.3463863404133005  0.07397529477446718  0.5523520957070693  1.0000
  C   C12       1.0  0.4343123340217301  0.08943731137243849  0.5477053605735216  1.0000
  O   O1        1.0  0.5984107404259352  0.3682791189342196  0.46504649615672977  1.0000
  H   H1        1.0  0.7642015115102996  0.15999238305317975  0.5263808326321324  1.0000
  H   H2        1.0  0.6170990859359791  0.02618445203451758  0.5660243889035181  1.0000
  H   H3        1.0  0.441229580154012  0.4485155564464882  0.4412090537433673  1.0000
  H   H4        1.0  0.22481075549860494  0.1791555362811159  0.5212464105973849  1.0000
  H   H5        1.0  0.3196903374044232  0.9696648899162996  0.5833091591011823  1.0000
  H   H6        1.0  0.4739751633387343  0.9954616418841657  0.5755548514738602  1.0000
  C   C13       1.0  0.010639284011556116  0.12706012396373256  0.411738643523355  1.0000
  C   C14       1.0  0.025538737430877534  0.20898481352367138  0.2814727835461417  1.0000
  C   C15       1.0  0.03245962118931911  0.14301967723248699  0.15117194837438408  1.0000
  C   C16       1.0  0.024585960601125167  0.992771090489265  0.14780524044939458  1.0000
  C   C17       1.0  0.011179888655426184  0.9098620633548835  0.2776234500404069  1.0000
  C   C18       1.0  0.005427990575698205  0.9744000241599526  0.41031709315455633  1.0000
  N   N3        1.0  0.030790930441195297  0.921748892759068  0.014811318059258172  1.0000
  C   C19       1.0  0.04492952207573331  0.9979931432822253  0.8742130218338282  1.0000
  H   H7        1.0  0.027914048674289482  0.39152784248403294  0.6484198321904622  1.0000
  H   H8        1.0  0.029861077009824655  0.32556383282436596  0.27971913531930426  1.0000
  H   H9        1.0  0.04316140497629872  0.21046214165659727  0.0533081176946093  1.0000
  H   H10       1.0  0.007180558759456668  0.7934813120145788  0.2753362853285921  1.0000
  H   H11       1.0  0.03657246611093967  0.8464229668641541  0.7614613230339284  1.0000
  H   H12       1.0  0.02479959476136573  0.809480181814286  0.01777980071812668  1.0000
  H   H13       1.0  0.9924019913216348  0.07688480960568889  0.8489941270003447  1.0000
  H   H14       1.0  0.1062630067331427  0.0548651303675014  0.8746525327487942  1.0000
  H   H15       1.0  0.0470791788005831  0.9196256921335889  0.7888957478912166  1.0000
  C   C20       1.0  0.008100591647149935  0.5462305661500486  0.9877897627392689  1.0000
  C   C21       1.0  0.08594596835078105  0.5424982023927092  0.061659650285911694  1.0000
  C   C22       1.0  0.16235136881233325  0.5521927889508882  0.9864851824075087  1.0000
  C   C23       1.0  0.16285191734870952  0.5659889841784616  0.8348360121894336  1.0000
  C   C24       1.0  0.08553799918680904  0.567282481863475  0.7601623473757302  1.0000
  C   C25       1.0  0.007966720491570989  0.5552296259418028  0.8342659359863558  1.0000
  N   N4        1.0  0.24067930970307794  0.5773288300422637  0.7542901065243353  1.0000
  C   C26       1.0  0.3243436349781754  0.5765682349330348  0.8215603075967466  1.0000
  H   H16       1.0  0.8747779484188324  0.4784150936843343  0.27329475722113417  1.0000
  H   H17       1.0  0.08774815519022439  0.5355143990938955  0.178725392108098  1.0000
  H   H18       1.0  0.22074366708296744  0.5502157806764127  0.047805403301778515  1.0000
  H   H19       1.0  0.08612503756718648  0.5743845487915658  0.6430249158946939  1.0000
  H   H20       1.0  0.8111762892122435  0.44533961887877727  0.7382965994522066  1.0000
  H   H21       1.0  0.23787106444672412  0.586921152511406  0.6413889546778977  1.0000
  H   H22       1.0  0.32927389710634025  0.669057862745893  0.8908921245061596  1.0000
  H   H23       1.0  0.33531417128074037  0.47332300084169043  0.8873221434460117  1.0000
  H   H24       1.0  0.37393581191067327  0.5869228546765315  0.736818993371851  1.0000
  Zn  Zn1       1.0  0.9151832376420446  0.5517646029627117  0.410716665016291  1.0000
  Zn  Zn2       1.0  0.10087594535255606  0.5496949516091449  0.4113383542636775  1.0000
  C   C27       1.0  0.008025465831213108  0.5477809972848475  0.6742734576801193  1.0000
  C   C28       1.0  0.008035733703871006  0.5536803565877624  0.14778170679515545  1.0000
  C   C29       1.0  0.0064095969614872406  0.8141737501857202  0.40484242262133807  1.0000
  C   C30       1.0  0.009651549858141317  0.28728587181761034  0.4172128213900037  1.0000
  O   O2        1.0  0.07848342032679856  0.5553888581487858  0.20171240315405026  1.0000
  O   O3        1.0  0.07851425448328331  0.5445005854176312  0.6208141960117954  1.0000
  O   O4        1.0  0.07720846973706363  0.7596161289013632  0.40324672323528477  1.0000
  O   O5        1.0  0.07978914166229423  0.3402733245432459  0.4192797676360094  1.0000
  O   O6        1.0  0.93626997796449  0.761186230736371  0.40277525142422377  1.0000
  O   O7        1.0  0.9375757520583496  0.5460724198296796  0.6203426444449318  1.0000
  O   O8        1.0  0.9375449185415196  0.5569606238619162  0.20123911885024737  1.0000
  O   O9        1.0  0.9388506399199231  0.341845081085945  0.41880659140702226  1.0000
