data_image0
_chemical_formula_structural       NC9NC3OH6C6FH5C6NCH9Zn2C4O8
_chemical_formula_sum              "N3 C29 O9 H20 F1 Zn2"
_cell_length_a       15.78231758774541
_cell_length_b       9.275642734913903
_cell_length_c       9.273390368590327
_cell_angle_alpha    86.08531418249576
_cell_angle_beta     90.0787864382203
_cell_angle_gamma    90.2347076146716

_space_group_name_H-M_alt    "P 1"
_space_group_IT_number       1

loop_
  _space_group_symop_operation_xyz
  'x, y, z'

loop_
  _atom_site_type_symbol
  _atom_site_label
  _atom_site_symmetry_multiplicity
  _atom_site_fract_x
  _atom_site_fract_y
  _atom_site_fract_z
  _atom_site_occupancy
  N   N1        1.0  0.8076106199701232  0.5525650940682003  0.41066985690717006  1.0000
  C   C1        1.0  0.7585150360203069  0.461717948590306  0.43752324448931756  1.0000
  C   C2        1.0  0.6975612104061568  0.3489545627896564  0.4708552146144922  1.0000
  C   C3        1.0  0.7163451188581942  0.2073046421664133  0.5126374125479147  1.0000
  C   C4        1.0  0.6391886946446909  0.13865642484648277  0.5329694371988671  1.0000
  C   C5        1.0  0.5780583636920784  0.2434940646421342  0.5020916411138474  1.0000
  C   C6        1.0  0.48484714523096356  0.22411226960178077  0.5079023147151369  1.0000
  C   C7        1.0  0.4318392693348407  0.34295692849287907  0.4727153122743497  1.0000
  C   C8        1.0  0.34353419189776696  0.32706440567800854  0.47748787217509703  1.0000
  C   C9        1.0  0.2898512688110364  0.44936681431432257  0.4412679338594554  1.0000
  N   N2        1.0  0.24670299556778824  0.5476821565165395  0.4121503475637103  1.0000
  C   C10       1.0  0.3075546058190277  0.1921503643331175  0.5175020604010898  1.0000
  C   C11       1.0  0.35963307331262784  0.07355146481985142  0.5526211501546345  1.0000
  C   C12       1.0  0.44774978006404587  0.08900737954022375  0.5479782885965354  1.0000
  O   O1        1.0  0.615287504824929  0.36773914592022083  0.4653892801893338  1.0000
  H   H1        1.0  0.7785092049352087  0.1595346076076405  0.5266714362533897  1.0000
  H   H2        1.0  0.6297563522694646  0.025779482095405593  0.5662814706931882  1.0000
  H   H3        1.0  0.4590960048009557  0.44794391919790755  0.4415719387694246  1.0000
  H   H4        1.0  0.23935481299404202  0.17869019835401634  0.5215418150102717  1.0000
  H   H5        1.0  0.331650474533345  0.9692822246647942  0.5835520814966497  1.0000
  H   H6        1.0  0.4862534853315457  0.9950687962902738  0.575804236523435  1.0000
  C   C13       1.0  0.024540781090933494  0.12661534479282155  0.41202099688893146  1.0000
  C   C14       1.0  0.008144616584531583  0.20872690526264104  0.281762326053252  1.0000
  C   C15       1.0  0.9997406220665445  0.1421644360522749  0.1519752066009259  1.0000
  C   C16       1.0  0.007669481283473445  0.9927658559724605  0.15015327282873625  1.0000
  C   C17       1.0  0.022534370058122866  0.9090604105601443  0.2783906021270579  1.0000
  C   C18       1.0  0.029780868837007812  0.9736208659524385  0.41081167626784065  1.0000
  F   F1        1.0  0.984872071415702  0.22310444233980253  0.027257264524833014  1.0000
  H   H7        1.0  0.11208453737024882  0.20820868073367693  0.7342473088266934  1.0000
  H   H8        1.0  0.003818617109762501  0.3253807898983274  0.27990317677289567  1.0000
  H   H9        1.0  0.0014859365500585753  0.9413021162724743  0.049333057662874547  1.0000
  H   H10       1.0  0.026360711097379363  0.7928158413067978  0.2744423871993853  1.0000
  H   H11       1.0  0.08533657217640278  0.6779015621597286  0.6295762307496473  1.0000
  C   C19       1.0  0.02717226248559923  0.5456203669826518  0.9881771275257853  1.0000
  C   C20       1.0  0.10497160309695097  0.5418894761526409  0.062046080033164364  1.0000
  C   C21       1.0  0.1814965794922605  0.55158023687218  0.9868740408620544  1.0000
  C   C22       1.0  0.1821672944319943  0.5653709876162294  0.8352283268945118  1.0000
  C   C23       1.0  0.10486933065789317  0.5666639748397193  0.760554986130447  1.0000
  C   C24       1.0  0.027149388428358234  0.5546158754160813  0.8346555552354022  1.0000
  N   N3        1.0  0.26013455584108724  0.5767063583618595  0.7546852621103723  1.0000
  C   C25       1.0  0.34378949970833883  0.5759460634112958  0.8219552726369694  1.0000
  H   H12       1.0  0.8930131629118092  0.47783165698415386  0.2736651327393036  1.0000
  H   H13       1.0  0.10668764961513055  0.5349084289181887  0.1791100722589234  1.0000
  H   H14       1.0  0.23986449275080113  0.5496040087975207  0.04819376647224094  1.0000
  H   H15       1.0  0.10554396805855282  0.5737632390322924  0.6434193338734788  1.0000
  H   H16       1.0  0.829003540894158  0.4447692349713879  0.7386586888360069  1.0000
  H   H17       1.0  0.25744462516259303  0.5862948953495142  0.6417865133518226  1.0000
  H   H18       1.0  0.3498605566029722  0.6683991914322602  0.8913102602336758  1.0000
  H   H19       1.0  0.35348657837571285  0.47274157366769587  0.8876912432828559  1.0000
  H   H20       1.0  0.39350939362155635  0.586296596842903  0.7372165524722059  1.0000
  Zn  Zn1       1.0  0.9343231669477688  0.5511522198618641  0.41110541620082275  1.0000
  Zn  Zn2       1.0  0.1199903469587058  0.5490833852684627  0.411726586954996  1.0000
  C   C26       1.0  0.027116260151572646  0.5471701862605853  0.6746612108837566  1.0000
  C   C27       1.0  0.02719929248850006  0.5530672174604254  0.1481709379181324  1.0000
  C   C28       1.0  0.028786159270332234  0.8134578108322292  0.4052969130723927  1.0000
  C   C29       1.0  0.02552931929289004  0.28677786170296016  0.4175353148316927  1.0000
  O   O2        1.0  0.09766805228131048  0.5547750447842084  0.20210206229426975  1.0000
  O   O3        1.0  0.09756458722131778  0.5438910689639418  0.6212011274000646  1.0000
  O   O4        1.0  0.09891210200711442  0.758921719981827  0.403687545801495  1.0000
  O   O5        1.0  0.09632047420663037  0.33974440364061675  0.4196155356007618  1.0000
  O   O6        1.0  0.9579929763407581  0.7604912021971912  0.4032164673354983  1.0000
  O   O7        1.0  0.9566454722727248  0.5454622830726077  0.6207299696123143  1.0000
  O   O8        1.0  0.9567489371250196  0.5563461902210682  0.20162917175236839  1.0000
  O   O9        1.0  0.9554013589801361  0.341315539910664  0.4191427531313807  1.0000
