data_image0
_chemical_formula_structural       NC9NC3OH6C7H8C6H6Zn2C4O8
_chemical_formula_sum              "N2 C29 O9 H20 Zn2"
_cell_length_a       15.78231758774541
_cell_length_b       9.274341958901593
_cell_length_c       10.681121600428288
_cell_angle_alpha    85.52848388196088
_cell_angle_beta     90.08384876913414
_cell_angle_gamma    89.0114341261544

_space_group_name_H-M_alt    "P 1"
_space_group_IT_number       1

loop_
  _space_group_symop_operation_xyz
  'x, y, z'

loop_
  _atom_site_type_symbol
  _atom_site_label
  _atom_site_symmetry_multiplicity
  _atom_site_fract_x
  _atom_site_fract_y
  _atom_site_fract_z
  _atom_site_occupancy
  N   N1        1.0  0.7878749441267502  0.5697921451432424  0.6202013634009336  1.0000
  C   C1        1.0  0.7399235720217299  0.47864003997230453  0.6434674484863603  1.0000
  C   C2        1.0  0.6803899914432986  0.36549812093337763  0.6723466532580846  1.0000
  C   C3        1.0  0.7009579541493522  0.2233736380897371  0.7085470154503493  1.0000
  C   C4        1.0  0.6246661546998412  0.15449455011407887  0.726163015881907  1.0000
  C   C5        1.0  0.5622154206530954  0.25968293342303594  0.6994104102928416  1.0000
  C   C6        1.0  0.4692483272934804  0.24023520901314677  0.7044450460967089  1.0000
  C   C7        1.0  0.41474360404333394  0.35947942595952886  0.673958478317783  1.0000
  C   C8        1.0  0.3266387035513137  0.3435327581918124  0.678093663859366  1.0000
  C   C9        1.0  0.27141538131319065  0.46624644748741995  0.6467121217479941  1.0000
  N   N2        1.0  0.2270288258521568  0.5648924214620401  0.6214841691156863  1.0000
  C   C10       1.0  0.2923583696798383  0.2081643951893617  0.7127627514614472  1.0000
  C   C11       1.0  0.3459305899681991  0.08916671230999773  0.7431904905582778  1.0000
  C   C12       1.0  0.4338526189182246  0.10467529953473442  0.7391676787397687  1.0000
  O   O1        1.0  0.5978797095637781  0.38434484074991127  0.6676111178255977  1.0000
  H   H1        1.0  0.7637236857990882  0.17544416382660288  0.7207060431570693  1.0000
  H   H2        1.0  0.6166554790213336  0.04123926162273972  0.7550248155278199  1.0000
  H   H3        1.0  0.4406780198485536  0.46482001515659377  0.6469752279128305  1.0000
  H   H4        1.0  0.22432811626122  0.1946583962817956  0.716262991972255  1.0000
  H   H5        1.0  0.31926127079905103  0.9845462860499871  0.7699896779224502  1.0000
  H   H6        1.0  0.4735394818414749  0.010420754479112615  0.7632765461032132  1.0000
  C   C13       1.0  0.010149933439701053  0.1437364649378845  0.6210651787137274  1.0000
  C   C14       1.0  0.020166608346398274  0.22696957409750107  0.506431117483763  1.0000
  C   C15       1.0  0.02175290057412571  0.1619976628147417  0.3929880628993143  1.0000
  C   C16       1.0  0.012430632310209688  0.012471400949218836  0.3914484305963759  1.0000
  C   C17       1.0  0.00505361526569037  0.9276009631539618  0.5051635666625267  1.0000
  C   C18       1.0  0.00476197218650487  0.9909369152931053  0.6206312254712223  1.0000
  C   C19       1.0  0.01601078948653356  0.942440002427313  0.26954502448609574  1.0000
  H   H7        1.0  0.9396410037841687  0.22268089504242683  0.9109981424856013  1.0000
  H   H8        1.0  0.024969060754197026  0.3435237264586686  0.5042926393358189  1.0000
  H   H9        1.0  0.029358458265271725  0.22878907663499026  0.3060682905799832  1.0000
  H   H10       1.0  0.0014710463997924528  0.8111369957332387  0.5035543356262617  1.0000
  H   H11       1.0  0.9606616114265214  0.6938351930335157  0.8174801310803921  1.0000
  H   H12       1.0  0.0826490897693557  0.9121495293775047  0.24922616562362165  1.0000
  H   H13       1.0  0.9913005991652539  0.017532964024588926  0.19132182521012542  1.0000
  H   H14       1.0  0.9769162035356012  0.8437041719424158  0.27443996663302683  1.0000
  C   C20       1.0  0.007455981541488965  0.567336678781595  0.2531029595633092  1.0000
  C   C21       1.0  0.9473141653821106  0.4877861104603307  0.1915443967251409  1.0000
  C   C22       1.0  0.947314111887663  0.48778620354580715  0.06066225657032365  1.0000
  C   C23       1.0  0.007455914476471204  0.5673367502366529  0.9885933950088432  1.0000
  C   C24       1.0  0.06754809301782982  0.6468213927071862  0.05015126532495118  1.0000
  C   C25       1.0  0.06754808231852061  0.646821370459971  0.18104356396778587  1.0000
  H   H15       1.0  0.06827529529395937  0.6477841679480818  0.5464983096739024  1.0000
  H   H16       1.0  0.9001721706922945  0.42543061524575454  0.2444745696475732  1.0000
  H   H17       1.0  0.9001721525629728  0.4254306833447421  0.01597054033556211  1.0000
  H   H18       1.0  0.1146962433816987  0.7091851054002192  0.9972654416606872  1.0000
  H   H19       1.0  0.11469620100892852  0.7091850553084065  0.22568980904628289  1.0000
  H   H20       1.0  0.0682755629607934  0.647783662419869  0.6845692849904519  1.0000
  Zn  Zn1       1.0  0.9146052890062617  0.5683743375607861  0.6205787811704122  1.0000
  Zn  Zn2       1.0  0.10029852735458933  0.566298455676165  0.621116994448268  1.0000
  C   C26       1.0  0.007490606436099778  0.5615900644277487  0.8495729082606178  1.0000
  C   C27       1.0  0.007415226113856255  0.573084526238443  0.39212299521593286  1.0000
  C   C28       1.0  0.005776066216154119  0.830798057866589  0.6157229167995184  1.0000
  C   C29       1.0  0.009129713991718136  0.3038748004008247  0.6259730541463806  1.0000
  O   O2        1.0  0.07787120444781648  0.5742194767694586  0.43898364150242286  1.0000
  O   O3        1.0  0.07797150628028104  0.5588784793514985  0.8031203934649742  1.0000
  O   O4        1.0  0.07658604340515396  0.7762673492729206  0.6142848673108974  1.0000
  O   O5        1.0  0.0792566038927982  0.3568306178755096  0.6278190735714166  1.0000
  O   O6        1.0  0.935647149100054  0.7778421760714083  0.6138767018570102  1.0000
  O   O7        1.0  0.9370326009492661  0.5604550392587313  0.8027121603514848  1.0000
  O   O8        1.0  0.9369322994929272  0.5757959864078879  0.4385739027922626  1.0000
  O   O9        1.0  0.9383176990000552  0.3584071171964329  0.6274094287560861  1.0000
