data_image0
_chemical_formula_structural       NC9NC3OH6C6BrH5C6OCH8Zn2C4O8
_chemical_formula_sum              "N2 C29 O10 H19 Br1 Zn2"
_cell_length_a       15.78231758774541
_cell_length_b       10.302969083221269
_cell_length_c       9.273891588657152
_cell_angle_alpha    86.0762880013574
_cell_angle_beta     89.76748324947235
_cell_angle_gamma    89.63144763104107

_space_group_name_H-M_alt    "P 1"
_space_group_IT_number       1

loop_
  _space_group_symop_operation_xyz
  'x, y, z'

loop_
  _atom_site_type_symbol
  _atom_site_label
  _atom_site_symmetry_multiplicity
  _atom_site_fract_x
  _atom_site_fract_y
  _atom_site_fract_z
  _atom_site_occupancy
  N   N1        1.0  0.803063433598898  0.3998759277186008  0.41279248295227067  1.0000
  C   C1        1.0  0.7544447175614574  0.318056512803504  0.4395177544400357  1.0000
  C   C2        1.0  0.6940827996750729  0.21649873405908648  0.4726907013795467  1.0000
  C   C3        1.0  0.713610526264173  0.08892507933933547  0.5142731340160067  1.0000
  C   C4        1.0  0.6368143163287843  0.0270985671370505  0.5345083507329238  1.0000
  C   C5        1.0  0.5751333258154558  0.1215180459879508  0.5037784072353266  1.0000
  C   C6        1.0  0.48202358464086387  0.10406215811966635  0.5095617527216691  1.0000
  C   C7        1.0  0.42839206283052766  0.21109697815449135  0.47454234610921064  1.0000
  C   C8        1.0  0.34017016848744175  0.19678363341852467  0.4792924982014817  1.0000
  C   C9        1.0  0.2858454839523917  0.3069326124167162  0.44324503132158055  1.0000
  N   N2        1.0  0.24218132195084202  0.395478168725089  0.41426608970213463  1.0000
  C   C10       1.0  0.304898332291804  0.07527618072713982  0.5191164335153773  1.0000
  C   C11       1.0  0.3575991406013333  0.9684626916161281  0.5540682742996244  1.0000
  C   C12       1.0  0.44563495402296727  0.9823828142991669  0.5494472048666554  1.0000
  O   O1        1.0  0.6117102155900028  0.23341651948735764  0.4672512628075258  1.0000
  H   H1        1.0  0.7760256380541217  0.04590220601690764  0.5282397855028562  1.0000
  H   H2        1.0  0.6279746482599419  0.9254385913293158  0.5676611977347343  1.0000
  H   H3        1.0  0.45509806043685436  0.30565127864709485  0.4435470227150782  1.0000
  H   H4        1.0  0.23676899888661224  0.06315350233522787  0.5231372097001665  1.0000
  H   H5        1.0  0.33016351302294944  0.8745548172276777  0.5848521677131766  1.0000
  H   H6        1.0  0.484631567264196  0.8977790834403849  0.5771406805120787  1.0000
  C   C13       1.0  0.02262639228652663  0.016429555937287565  0.41353556539425895  1.0000
  C   C14       1.0  0.11039269190311907  0.012834113870760167  0.438121929501214  1.0000
  C   C15       1.0  0.15392950107828196  0.8941127289074592  0.4503179025125421  1.0000
  C   C16       1.0  0.11039275932809134  0.777751751375723  0.43812165622554633  1.0000
  C   C17       1.0  0.022626405627200974  0.7789145723850116  0.4135354698790765  1.0000
  C   C18       1.0  0.9791670769594831  0.8988501634326497  0.4013610792577511  1.0000
  Br  Br1       1.0  0.2733067752054388  0.8908766672239181  0.48375998039521995  1.0000
  H   H7        1.0  0.9895920071752532  0.34508450669083923  0.40428084252996355  1.0000
  H   H8        1.0  0.14533079568309293  0.1018863310252629  0.4479094547924485  1.0000
  H   H9        1.0  0.14533089751589934  0.6868053905942585  0.44790880584797055  1.0000
  H   H10       1.0  0.9114783307011084  0.9006850134975091  0.3823993223619866  1.0000
  H   H11       1.0  0.989591757532885  0.4520505342717772  0.4042829716244427  1.0000
  C   C19       1.0  0.02401448315115684  0.3942197826965159  0.9902648493053947  1.0000
  C   C20       1.0  0.09340398093467628  0.44836093052400416  0.05907140158741808  1.0000
  C   C21       1.0  0.15798727817999492  0.512244694375833  0.9794783781133152  1.0000
  C   C22       1.0  0.15341202025499356  0.5223103130220732  0.8280224104699219  1.0000
  C   C23       1.0  0.08580264943463067  0.4673652336513161  0.7578796341601697  1.0000
  C   C24       1.0  0.021238296978134397  0.4011243149565966  0.8368061728533447  1.0000
  O   O2        1.0  0.2250627937312668  0.5648105455226398  0.054910073021694705  1.0000
  C   C25       1.0  0.2948371015251161  0.632437347790106  0.988067843783885  1.0000
  H   H12       1.0  0.8224737178694698  0.31649905068715367  0.10060576413705791  1.0000
  H   H13       1.0  0.09662854694565515  0.4438024016478541  0.1760161748948208  1.0000
  H   H14       1.0  0.20222183805029004  0.5713971684414594  0.7632640656923697  1.0000
  H   H15       1.0  0.08511896641499894  0.4740632004040888  0.6407961629376091  1.0000
  H   H16       1.0  0.8868373523209532  0.3436386951446764  0.5609125067952285  1.0000
  H   H17       1.0  0.2720925935554841  0.7205203929805186  0.923595929319962  1.0000
  H   H18       1.0  0.3301666303422168  0.5676504133177283  0.9177737426904748  1.0000
  H   H19       1.0  0.3382104190684678  0.6630350586901115  0.07305693805058122  1.0000
  Zn  Zn1       1.0  0.929783339789366  0.3986034294310228  0.41322605081755004  1.0000
  Zn  Zn2       1.0  0.11546134862689805  0.39674016701934645  0.41384430459318833  1.0000
  C   C26       1.0  0.02176117936762001  0.3946472362433633  0.6767917487731652  1.0000
  C   C27       1.0  0.02348553618281346  0.40069797911204086  0.1502787548601443  1.0000
  C   C28       1.0  0.02264087901692058  0.6347418833511096  0.4077917033678151  1.0000
  C   C29       1.0  0.022605772922546175  0.16060177346101012  0.4192788769007181  1.0000
  O   O3        1.0  0.09377185343290728  0.4021593586956549  0.20421550739583005  1.0000
  O   O4        1.0  0.09240017588922589  0.39177070080744625  0.6233238216266404  1.0000
  O   O5        1.0  0.09310958968009908  0.5856501865143484  0.40610437857882764  1.0000
  O   O6        1.0  0.09306237663712569  0.20827988203035175  0.4214348421592582  1.0000
  O   O7        1.0  0.9521822484163719  0.5870637150572089  0.405635513032919  1.0000
  O   O8        1.0  0.9514728348736985  0.39318578853078234  0.6228548792269468  1.0000
  O   O9        1.0  0.9528445181568248  0.4035743870425017  0.20374483204145521  1.0000
  O   O10       1.0  0.9521350410031845  0.20969490197279117  0.4209642748707072  1.0000
