data_image0
_chemical_formula_structural       NC9NC3OH6C7H8C7H8Zn2C4O8
_chemical_formula_sum              "N2 C30 O9 H22 Zn2"
_cell_length_a       15.78231758774541
_cell_length_b       9.274341958901593
_cell_length_c       9.274345330872308
_cell_angle_alpha    85.08672685616447
_cell_angle_beta     89.64000707228583
_cell_angle_gamma    89.0114341261544

_space_group_name_H-M_alt    "P 1"
_space_group_IT_number       1

loop_
  _space_group_symop_operation_xyz
  'x, y, z'

loop_
  _atom_site_type_symbol
  _atom_site_label
  _atom_site_symmetry_multiplicity
  _atom_site_fract_x
  _atom_site_fract_y
  _atom_site_fract_z
  _atom_site_occupancy
  N   N1        1.0  0.79498990953791  0.5818814551808906  0.40988884423506455  1.0000
  C   C1        1.0  0.7469185652961987  0.4905255007608669  0.43670120689727154  1.0000
  C   C2        1.0  0.687236068392151  0.377130552293685  0.4699822556380684  1.0000
  C   C3        1.0  0.7076173630453182  0.2346888946171306  0.5117003717731388  1.0000
  C   C4        1.0  0.6312347262588011  0.1656554614455925  0.5320014490920886  1.0000
  C   C5        1.0  0.5689219426769822  0.2710782416692177  0.501171141346747  1.0000
  C   C6        1.0  0.47592888809472783  0.2515864055523407  0.5069731695156363  1.0000
  C   C7        1.0  0.42158136957685055  0.37109773507594035  0.47183975929156174  1.0000
  C   C8        1.0  0.3334551458994635  0.35511483626787577  0.47660524063530074  1.0000
  C   C9        1.0  0.2783936433506405  0.47810347959081767  0.4404404417488528  1.0000
  N   N2        1.0  0.2341371764442785  0.5769704920074954  0.4113671785540012  1.0000
  C   C10       1.0  0.29899604002997154  0.21944271492154255  0.5165586812997587  1.0000
  C   C11       1.0  0.35241135893760106  0.1001784349011694  0.5516242960200564  1.0000
  C   C12       1.0  0.44035413161514236  0.11572226858724255  0.5469883166963481  1.0000
  O   O1        1.0  0.6047502054168908  0.3960187632050196  0.4645249175019197  1.0000
  H   H1        1.0  0.7703203963713481  0.1866528872325659  0.5257127103034662  1.0000
  H   H2        1.0  0.623075224004634  0.052147296023585366  0.5652624397722485  1.0000
  H   H3        1.0  0.44765492517263067  0.47667474201637483  0.4407436512438909  1.0000
  H   H4        1.0  0.2309477375355645  0.20590604813852043  0.5205924376294606  1.0000
  H   H5        1.0  0.3256038491034632  0.9953232035933719  0.5825082856565729  1.0000
  H   H6        1.0  0.4799166765742758  0.021256490120829863  0.5747719207169759  1.0000
  C   C13       1.0  0.01726044456607667  0.1558182065297793  0.41088432453846546  1.0000
  C   C14       1.0  0.027868232812762406  0.24005569898875923  0.2787774396949685  1.0000
  C   C15       1.0  0.030039496925586384  0.17607773582430553  0.14804309784679726  1.0000
  C   C16       1.0  0.0207251678132907  0.02656496367515171  0.14626879075898036  1.0000
  C   C17       1.0  0.012761775888861182  0.9406981938794043  0.2773166854603397  1.0000
  C   C18       1.0  0.011874721003386934  0.003022459030582736  0.4103842270070688  1.0000
  C   C19       1.0  0.024933922884242232  0.9576016398940248  0.005784548464411232  1.0000
  H   H7        1.0  0.9452564684928464  0.23222234604684022  0.7450096294119253  1.0000
  H   H8        1.0  0.03268171233542527  0.35662858794282726  0.27631300911125134  1.0000
  H   H9        1.0  0.0380932585482292  0.24363071009844783  0.04787478635883802  1.0000
  H   H10       1.0  0.009187505062153711  0.8242483259746566  0.2754621712181198  1.0000
  H   H11       1.0  0.9667593040478956  0.7041960159404616  0.6372373579688237  1.0000
  H   H12       1.0  0.09167699785966565  0.9274891935344043  0.9823686359590402  1.0000
  H   H13       1.0  0.0006270924028961566  0.03337996563292278  0.9156383644422803  1.0000
  H   H14       1.0  0.9858140960444288  0.8588229216487973  0.011425590503590932  1.0000
  C   C20       1.0  0.016463898849045977  0.5826423758344224  0.9868363409767036  1.0000
  C   C21       1.0  0.9653637198596675  0.6848149601122127  0.051866087928683635  1.0000
  C   C22       1.0  0.9092712720374454  0.7754434641729642  0.9695924341279833  1.0000
  C   C23       1.0  0.9023119277357999  0.7649102283694607  0.8206308358898284  1.0000
  C   C24       1.0  0.9547002296467727  0.6667788177497744  0.7535988316717734  1.0000
  C   C25       1.0  0.012671260903762693  0.576198320015008  0.8344321411892976  1.0000
  C   C26       1.0  0.8432803716469706  0.8646590123905287  0.731846933676958  1.0000
  H   H15       1.0  0.11574086969243735  0.26735457180288336  0.11568574383517372  1.0000
  H   H16       1.0  0.9674721127277943  0.6925316634148282  0.16768577413592678  1.0000
  H   H17       1.0  0.8705322360457916  0.8529278590116909  0.022580396886434206  1.0000
  H   H18       1.0  0.9515131693166391  0.6635257836155939  0.6371979160322447  1.0000
  H   H19       1.0  0.08257666768371541  0.36688281035525483  0.5708906988810343  1.0000
  H   H20       1.0  0.8772486569887987  0.9644279048217272  0.6927802904742801  1.0000
  H   H21       1.0  0.7874859710925163  0.8946648021781745  0.7972173197118266  1.0000
  H   H22       1.0  0.8198134149655537  0.8116165712721397  0.6371966553867714  1.0000
  Zn  Zn1       1.0  0.9217183082534638  0.5804603407967692  0.41032378900868105  1.0000
  Zn  Zn2       1.0  0.10740877129186233  0.5783797432768303  0.4109440381628684  1.0000
  C   C27       1.0  0.013422811867148665  0.5716697017160035  0.6742218002346443  1.0000
  C   C28       1.0  0.015706283207979954  0.5871721786665907  0.14704617428320588  1.0000
  C   C29       1.0  0.012914124846729713  0.8429266064771821  0.4047277810824288  1.0000
  C   C30       1.0  0.016214917538408535  0.31591354091549095  0.41654027118862436  1.0000
  O   O2        1.0  0.08592062347343643  0.5878965527073161  0.20104944291243454  1.0000
  O   O3        1.0  0.08414324523982142  0.5693651172255614  0.6206888715661896  1.0000
  O   O4        1.0  0.08373151737308371  0.7884084975670158  0.40307054032733225  1.0000
  O   O5        1.0  0.0863322883951807  0.36885318421767566  0.41866766572551395  1.0000
  O   O6        1.0  0.9427947277831279  0.7899869005675577  0.40260016122678266  1.0000
  O   O7        1.0  0.9432064449728389  0.5709452539276583  0.6202184144931839  1.0000
  O   O8        1.0  0.9449838313462254  0.5894766523321173  0.20057725075577304  1.0000
  O   O9        1.0  0.9453954958459454  0.37043327270229764  0.41819558177537774  1.0000
