data_image0
_chemical_formula_structural       NC9NC3OH6C6ClH5C6H6Zn2C4O8
_chemical_formula_sum              "N2 C28 O9 H17 Cl1 Zn2"
_cell_length_a       15.78231758774541
_cell_length_b       10.30297070629231
_cell_length_c       10.681121600428288
_cell_angle_alpha    85.56070620365333
_cell_angle_beta     90.08384876913414
_cell_angle_gamma    89.63144908567993

_space_group_name_H-M_alt    "P 1"
_space_group_IT_number       1

loop_
  _space_group_symop_operation_xyz
  'x, y, z'

loop_
  _atom_site_type_symbol
  _atom_site_label
  _atom_site_symmetry_multiplicity
  _atom_site_fract_x
  _atom_site_fract_y
  _atom_site_fract_z
  _atom_site_occupancy
  N   N1        1.0  0.7978584024085617  0.4128212419802868  0.6210055464456157  1.0000
  C   C1        1.0  0.749327327288662  0.3307838647165784  0.6442249355543219  1.0000
  C   C2        1.0  0.6890741943592117  0.22895553854539363  0.6730461792684532  1.0000
  C   C3        1.0  0.7087382833583649  0.10104275150017927  0.7091737330321046  1.0000
  C   C4        1.0  0.6320084313275478  0.03905120763794434  0.7267544476490055  1.0000
  C   C5        1.0  0.5702266672713482  0.13372130954172134  0.7000557286299656  1.0000
  C   C6        1.0  0.4771358915847941  0.11621825460576796  0.7050804016306196  1.0000
  C   C7        1.0  0.42338952966860793  0.22353868120261633  0.674654921033039  1.0000
  C   C8        1.0  0.3351832126337126  0.20918659578115673  0.6787819373148396  1.0000
  C   C9        1.0  0.2807403166459566  0.31962956586162083  0.6474632597480428  1.0000
  N   N2        1.0  0.2369811232015384  0.4084114647253465  0.6222858420989434  1.0000
  C   C10       1.0  0.3000419721709453  0.08735435236366329  0.7133816775560933  1.0000
  C   C11       1.0  0.352857399016089  0.9802558077324197  0.7437484557676095  1.0000
  C   C12       1.0  0.4408780584338786  0.9942136183457558  0.7397335887862122  1.0000
  O   O1        1.0  0.6066837725781248  0.24591768616527498  0.6683202987527468  1.0000
  H   H1        1.0  0.7711991963680946  0.0579059708981049  0.721308207124729  1.0000
  H   H2        1.0  0.6232774822986186  0.937120848359348  0.7555582281597057  1.0000
  H   H3        1.0  0.4499938834531226  0.3183457692115528  0.6477256351711063  1.0000
  H   H4        1.0  0.23192582421076943  0.07519888183859491  0.7168749991283931  1.0000
  H   H5        1.0  0.3255227219113544  0.8860968701797747  0.7704940475183839  1.0000
  H   H6        1.0  0.4799654876541732  0.9093840287597923  0.7637941708354183  1.0000
  C   C13       1.0  0.017423791522391152  0.029368874020091917  0.6216510992609372  1.0000
  C   C14       1.0  0.1049176727414669  0.025347222614009457  0.6460268361729682  1.0000
  C   C15       1.0  0.148329801353847  0.9063949426157657  0.6581213386932669  1.0000
  C   C16       1.0  0.1049176720650149  0.7902392539507882  0.6460267772754265  1.0000
  C   C17       1.0  0.017423800565061542  0.7918538157421016  0.6216511709743104  1.0000
  C   C18       1.0  0.9741033531199588  0.9120067072500582  0.6095820957358682  1.0000
  Cl  Cl1       1.0  0.2576305049397467  0.9028744587685003  0.6885723554108982  1.0000
  H   H7        1.0  0.9844663788676496  0.35818687799125737  0.612468484980287  1.0000
  H   H8        1.0  0.13971611565355913  0.11427297862092423  0.65572155163047  1.0000
  H   H9        1.0  0.13971608214514486  0.6990717861291501  0.6557214615600533  1.0000
  H   H10       1.0  0.906625416767601  0.9141799996550831  0.590782756046996  1.0000
  H   H11       1.0  0.9844663747354901  0.4651589113570025  0.6124687214036542  1.0000
  C   C19       1.0  0.017423823713830444  0.41061130925420164  0.2539058847061595  1.0000
  C   C20       1.0  0.9567760872116939  0.339015376580178  0.1923065691999153  1.0000
  C   C21       1.0  0.9567760343092448  0.3390154603576001  0.061424429092785005  1.0000
  C   C22       1.0  0.017423757103247395  0.41061137356413213  0.9893963201882996  1.0000
  C   C23       1.0  0.0780214367165819  0.48214797262344966  0.050994909399570965  1.0000
  C   C24       1.0  0.07802142587578653  0.48214795260083787  0.18188720803100855  1.0000
  H   H12       1.0  0.07875476198579823  0.4830144754377226  0.5473424469651096  1.0000
  H   H13       1.0  0.909237528246128  0.2828951007424403  0.24520479825503427  1.0000
  H   H14       1.0  0.9092375105498978  0.2828951620318896  0.01670076897790973  1.0000
  H   H15       1.0  0.12556620361716675  0.5382756442353065  0.9981410338123227  1.0000
  H   H16       1.0  0.12556616092582606  0.53827559915241  0.22656540117225688  1.0000
  H   H17       1.0  0.07875502643760823  0.4830140204596538  0.685413422022684  1.0000
  Zn  Zn1       1.0  0.9245797304109694  0.41154520764941527  0.6213822378916625  1.0000
  Zn  Zn2       1.0  0.1102597667056  0.409676902962385  0.6219193877236222  1.0000
  C   C25       1.0  0.01742190167779123  0.4054393259099722  0.8503728894915357  1.0000
  C   C26       1.0  0.01741962305905287  0.4157844023976609  0.3929288649024172  1.0000
  C   C27       1.0  0.017419452310091232  0.6477279453415454  0.6166608096033064  1.0000
  C   C28       1.0  0.017422009067076027  0.17349422379801593  0.6266410113725107  1.0000
  O   O2        1.0  0.0878828193749055  0.4168058638846335  0.43979009260854096  1.0000
  O   O3        1.0  0.08788555656596353  0.4029988849847097  0.8039189855879456  1.0000
  O   O4        1.0  0.08788262877390784  0.5986500188913892  0.6151948247785324  1.0000
  O   O5        1.0  0.0878856838069475  0.22115473990273804  0.6285141593385206  1.0000
  O   O6        1.0  0.9469537499461387  0.6000673713480364  0.614787466086874  1.0000
  O   O7        1.0  0.9469566777343874  0.4044177972484031  0.8035115601245333  1.0000
  O   O8        1.0  0.9469539405997587  0.41822473090613754  0.4393811615227057  1.0000
  O   O9        1.0  0.9469568050283306  0.22257359763843176  0.6281053221422295  1.0000
