data_image0
_chemical_formula_structural       NC9NC3OH6C6H6C6NCH9Zn2C4O8
_chemical_formula_sum              "N3 C29 O9 H21 Zn2"
_cell_length_a       15.78231758774541
_cell_length_b       10.681118228259551
_cell_length_c       9.273390368590327
_cell_angle_alpha    86.16779738115358
_cell_angle_beta     90.0787864382203
_cell_angle_gamma    89.63144314392761

_space_group_name_H-M_alt    "P 1"
_space_group_IT_number       1

loop_
  _space_group_symop_operation_xyz
  'x, y, z'

loop_
  _atom_site_type_symbol
  _atom_site_label
  _atom_site_symmetry_multiplicity
  _atom_site_fract_x
  _atom_site_fract_y
  _atom_site_fract_z
  _atom_site_occupancy
  N   N1        1.0  0.7980055050520329  0.34815729743292056  0.412886624968996  1.0000
  C   C1        1.0  0.7494719569715206  0.2692709160535425  0.43961030008280777  1.0000
  C   C2        1.0  0.6892157544607795  0.17135374528162806  0.47278126551121225  1.0000
  C   C3        1.0  0.7088759957448008  0.048353186465360576  0.5143612142628149  1.0000
  C   C4        1.0  0.6321442712870753  0.9887430641656773  0.534595222298401  1.0000
  C   C5        1.0  0.5703653507314725  0.0797779777265657  0.503867114450264  1.0000
  C   C6        1.0  0.47727403987963773  0.06294795332318714  0.5096501145295922  1.0000
  C   C7        1.0  0.42353091841448104  0.16614574822216377  0.47463279968847805  1.0000
  C   C8        1.0  0.3353241618198367  0.15234560503374195  0.47938266808525354  1.0000
  C   C9        1.0  0.28088460141451704  0.2585459088577997  0.44333735437916033  1.0000
  N   N2        1.0  0.2371280894805552  0.34391723824420595  0.4143601437181721  1.0000
  C   C10       1.0  0.3001792363141921  0.03519409231443582  0.5192042246856308  1.0000
  C   C11       1.0  0.3529914289593728  0.9322097005763977  0.5541539777372149  1.0000
  C   C12       1.0  0.441012515992416  0.9456307186698625  0.5495331842896565  1.0000
  O   O1        1.0  0.6068258359875145  0.1876651855706457  0.46734215190284134  1.0000
  H   H1        1.0  0.7713356164009008  0.006872464700400593  0.5283270314323274  1.0000
  H   H2        1.0  0.6234102545478363  0.8907272871375882  0.5677460889581953  1.0000
  H   H3        1.0  0.4501381403017587  0.25731034943294473  0.44363932766516645  1.0000
  H   H4        1.0  0.23206271628822783  0.023506066441179474  0.5232247607344034  1.0000
  H   H5        1.0  0.32565390331611355  0.8416683522297813  0.5849360324090735  1.0000
  H   H6        1.0  0.48009738264941615  0.8640599123939825  0.5772250057622668  1.0000
  C   C13       1.0  0.017570851200995996  0.9782872900372115  0.4136295896132185  1.0000
  C   C14       1.0  0.054757020118919586  0.9044710842107868  0.5282168861871273  1.0000
  C   C15       1.0  0.05475700717055698  0.773588845552017  0.5282168202484374  1.0000
  C   C16       1.0  0.017570836969065917  0.7137776947063295  0.4136296518706406  1.0000
  C   C17       1.0  0.9804154509002755  0.7875830762697339  0.2991370474473556  1.0000
  C   C18       1.0  0.9804154638068983  0.918475334783692  0.29913710598734555  1.0000
  H   H7        1.0  0.9799653402370468  0.28407849655186723  0.2977514029202293  1.0000
  H   H8        1.0  0.08390534393341342  0.9477930923116634  0.6180357727089669  1.0000
  H   H9        1.0  0.08390523975927944  0.7192890644868865  0.6180357469000353  1.0000
  H   H10       1.0  0.9512633265507541  0.7443065398285307  0.20930643337137345  1.0000
  H   H11       1.0  0.9512633043415178  0.9727309789687372  0.20930642157731305  1.0000
  H   H12       1.0  0.9799656522359388  0.42214913905243623  0.29775101408407223  1.0000
  C   C19       1.0  0.017610111886355417  0.3421269000377749  0.9903839798364071  1.0000
  C   C20       1.0  0.0954325340646609  0.3388872112687682  0.06424760534032226  1.0000
  C   C21       1.0  0.1718975575016628  0.34730210468073475  0.9890894027348667  1.0000
  C   C22       1.0  0.17248295444332395  0.3592771911513133  0.837463379339987  1.0000
  C   C23       1.0  0.0951769914613847  0.36039994611179416  0.7627918847160888  1.0000
  C   C24       1.0  0.017531586125633547  0.3499380767703846  0.8368752514234701  1.0000
  N   N3        1.0  0.2503800883330829  0.3691201683303156  0.7569364993122445  1.0000
  C   C25       1.0  0.3340397358487681  0.3684599723812243  0.8242054242820611  1.0000
  H   H13       1.0  0.8838703946316528  0.2832631239441301  0.2757751956477601  1.0000
  H   H14       1.0  0.09719176960028775  0.3328252755671288  0.1813016299566026  1.0000
  H   H15       1.0  0.23027769691280287  0.3455860630729308  0.05040630666672552  1.0000
  H   H16       1.0  0.09580770848236808  0.3665645345494637  0.6456663688599615  1.0000
  H   H17       1.0  0.8200653169285147  0.2545536381534115  0.7407215448856692  1.0000
  H   H18       1.0  0.24763083711465517  0.3774462965944385  0.6440514411632767  1.0000
  H   H19       1.0  0.3395388212862489  0.44874089566629216  0.8936924173851368  1.0000
  H   H20       1.0  0.344375300456498  0.27884319141193403  0.8897940385191418  1.0000
  H   H21       1.0  0.3836955950471421  0.3774477740724116  0.7394814827130696  1.0000
  Zn  Zn1       1.0  0.9247267929315371  0.34693043958399383  0.41332016694664175  1.0000
  Zn  Zn2       1.0  0.11040677201549998  0.34513398385731797  0.41393838379796777  1.0000
  C   C26       1.0  0.017544521424704307  0.34347267302805484  0.6768702760419363  1.0000
  C   C27       1.0  0.017591071128751468  0.3485933122048783  0.15038842291678955  1.0000
  C   C28       1.0  0.017567002831287093  0.5747013703972941  0.4078861863800822  1.0000
  C   C29       1.0  0.017568526355490333  0.11736311157448376  0.41937258920903475  1.0000
  O   O2        1.0  0.08804926525976264  0.3500762901992376  0.20432198574596216  1.0000
  O   O3        1.0  0.08801313511469155  0.3406252781397514  0.6234055106015763  1.0000
  O   O4        1.0  0.08803033909946012  0.5273453985708365  0.4061989519299751  1.0000
  O   O5        1.0  0.08803199792502214  0.16335617834241511  0.4215284361395848  1.0000
  O   O6        1.0  0.9471015036585515  0.5287082457132324  0.40573011438647666  1.0000
  O   O7        1.0  0.9470842996769983  0.3419896291576381  0.6229365962091389  1.0000
  O   O8        1.0  0.9471204300392171  0.3514405815865189  0.20385133850132386  1.0000
  O   O9        1.0  0.947103162690985  0.16472046176976907  0.42105789695437723  1.0000
