data_image0
_chemical_formula_structural       NC9NC3OH6C7OH6C6NH7Zn2C4O8
_chemical_formula_sum              "N3 C29 O10 H19 Zn2"
_cell_length_a       15.78231758774541
_cell_length_b       9.274078303013075
_cell_length_c       9.274774538082514
_cell_angle_alpha    85.24273556262948
_cell_angle_beta     90.43038941912484
_cell_angle_gamma    89.04960325712263

_space_group_name_H-M_alt    "P 1"
_space_group_IT_number       1

loop_
  _space_group_symop_operation_xyz
  'x, y, z'

loop_
  _atom_site_type_symbol
  _atom_site_label
  _atom_site_symmetry_multiplicity
  _atom_site_fract_x
  _atom_site_fract_y
  _atom_site_fract_z
  _atom_site_occupancy
  N   N1        1.0  0.7827310670990584  0.5832368921249387  0.4155576580437037  1.0000
  C   C1        1.0  0.7348398715887806  0.49187696300570805  0.44203896700398904  1.0000
  C   C2        1.0  0.6753809862089857  0.37847708052659357  0.47490909764203537  1.0000
  C   C3        1.0  0.6960424568878355  0.23602932558589185  0.5161110318810327  1.0000
  C   C4        1.0  0.6197962766418255  0.1669928429496388  0.5361619496319179  1.0000
  C   C5        1.0  0.5572765029830654  0.2724200835248005  0.505713676886882  1.0000
  C   C6        1.0  0.46432254521166194  0.2529273064455382  0.5114450755590578  1.0000
  C   C7        1.0  0.40973888930947744  0.3724439015106906  0.4767447446126627  1.0000
  C   C8        1.0  0.3216447886518289  0.3564602220600097  0.48145231169149727  1.0000
  C   C9        1.0  0.2663402038161816  0.4794542945803246  0.44573319248513554  1.0000
  N   N2        1.0  0.2218883185025874  0.5783256730031565  0.41701819821138164  1.0000
  C   C10       1.0  0.2874543129664894  0.22078204411711422  0.5209141143006302  1.0000
  C   C11       1.0  0.3411053203414756  0.10151250391902966  0.5555475452618832  1.0000
  C   C12       1.0  0.4290168410007455  0.11705709841431133  0.5509678891646312  1.0000
  O   O1        1.0  0.5928585767311357  0.3973660146840392  0.4695202110588568  1.0000
  H   H1        1.0  0.7588395170798724  0.18799132643590988  0.5299492937313515  1.0000
  H   H2        1.0  0.6118601765944977  0.053479799485823154  0.5690116089272508  1.0000
  H   H3        1.0  0.4356033604125982  0.4780256275416841  0.44603121799555656  1.0000
  H   H4        1.0  0.2194331978599443  0.20724471886068474  0.5248988201896478  1.0000
  H   H5        1.0  0.314505469409701  0.9966525852459281  0.5860515690065979  1.0000
  H   H6        1.0  0.4687661422181253  0.022587143060155412  0.578409173476214  1.0000
  C   C13       1.0  0.004834737915553777  0.15729687250862767  0.4150021748224866  1.0000
  C   C14       1.0  0.9879758876135634  0.2420834565109895  0.28466701656825766  1.0000
  C   C15       1.0  0.9638134665691264  0.17834230569651277  0.15923717078149924  1.0000
  C   C16       1.0  0.9562844351317081  0.02774065357658806  0.16406176383992088  1.0000
  C   C17       1.0  0.9740870812441343  0.9419082903812012  0.29171412889932724  1.0000
  C   C18       1.0  0.9997928592352425  0.004254394845117027  0.4175861753449879  1.0000
  C   C19       1.0  0.9458670398847345  0.270629579683048  0.024862307663142014  1.0000
  O   O2        1.0  0.9236726103503656  0.21657519088434452  0.9105178206594222  1.0000
  H   H7        1.0  0.0035217828186016042  0.23084710059139435  0.7703288418147036  1.0000
  H   H8        1.0  0.991754839429693  0.3589338968652036  0.281566850729259  1.0000
  H   H9        1.0  0.9374014605873546  0.9759294077287727  0.06872326719859312  1.0000
  H   H10       1.0  0.969667250846285  0.8255272898413948  0.29092741376509035  1.0000
  H   H11       1.0  0.002616349462556178  0.7032554073569174  0.6562721345185976  1.0000
  H   H12       1.0  0.9517112824949642  0.3868920033808816  0.023365253875965886  1.0000
  C   C20       1.0  0.0007710672249325867  0.5844810563177183  0.9924840360351594  1.0000
  C   C21       1.0  0.06030893147320682  0.6689110756598298  0.059679869113385076  1.0000
  C   C22       1.0  0.12371916271792038  0.7414193420002271  0.9793506770685401  1.0000
  C   C23       1.0  0.12810664943860717  0.729823895613023  0.8303523958978394  1.0000
  C   C24       1.0  0.06882174211315761  0.6485676546282391  0.7614645964794913  1.0000
  C   C25       1.0  0.003856507401660547  0.5770701943668817  0.8401042718243725  1.0000
  N   N3        1.0  0.1842310316998501  0.8256378535641655  0.04955437848257338  1.0000
  H   H13       1.0  0.8757850716895064  0.3039908424801179  0.11712304146153207  1.0000
  H   H14       1.0  0.058742871702400334  0.6757676569090514  0.1757157921214625  1.0000
  H   H15       1.0  0.17706896816358286  0.7849898948504195  0.7671555486038537  1.0000
  H   H16       1.0  0.0726243016417325  0.6445140046922864  0.6452918754790442  1.0000
  H   H17       1.0  0.917045415238131  0.39256946962970685  0.573164222618185  1.0000
  H   H18       1.0  0.18171646597988111  0.8347087788304692  0.16094370796821988  1.0000
  H   H19       1.0  0.2319770089152382  0.8796834837318463  0.9906386883557015  1.0000
  Zn  Zn1       1.0  0.9094624131341631  0.5818156955039664  0.41598745402256876  1.0000
  Zn  Zn2       1.0  0.09515705698641863  0.5797349964820693  0.4166001640956649  1.0000
  C   C26       1.0  0.0033056072113946122  0.5727260389597679  0.6798683659303701  1.0000
  C   C27       1.0  0.0013158803727140178  0.5888264486425367  0.1527194060816799  1.0000
  C   C28       1.0  0.0007205728721975113  0.8442117431486653  0.41134659941345664  1.0000
  C   C29       1.0  0.003900861941531497  0.31733901188071734  0.4212412440474955  1.0000
  O   O3        1.0  0.07196891168070296  0.589488896145659  0.2067283611227113  1.0000
  O   O4        1.0  0.07359051886969947  0.5704833047600519  0.6263240248885344  1.0000
  O   O5        1.0  0.07150212643984966  0.7897114418218929  0.40949080003026905  1.0000
  O   O6        1.0  0.07405724029023575  0.3702607710560817  0.4235614775922214  1.0000
  O   O7        1.0  0.9305621664618402  0.7912899216416311  0.40902614030933737  1.0000
  O   O8        1.0  0.9326505482935642  0.5720635178643896  0.625859293502026  1.0000
  O   O9        1.0  0.931028935143864  0.5910690741663829  0.2062618944195973  1.0000
  O   O10       1.0  0.9331172642052084  0.3718409378162184  0.4230951190611887  1.0000
