data_image0
_chemical_formula_structural       NC9NC3OH6C7F3H5C6NCOH7Zn2C4O8
_chemical_formula_sum              "N3 C30 O10 H18 F3 Zn2"
_cell_length_a       15.78231758774541
_cell_length_b       9.27228830945605
_cell_length_c       10.29962270195845
_cell_angle_alpha    85.28125625353758
_cell_angle_beta     90.10253899755935
_cell_angle_gamma    89.05832516092083

_space_group_name_H-M_alt    "P 1"
_space_group_IT_number       1

loop_
  _space_group_symop_operation_xyz
  'x, y, z'

loop_
  _atom_site_type_symbol
  _atom_site_label
  _atom_site_symmetry_multiplicity
  _atom_site_fract_x
  _atom_site_fract_y
  _atom_site_fract_z
  _atom_site_occupancy
  N   N1        1.0  0.7883171419303039  0.570179374312566  0.5625409542337096  1.0000
  C   C1        1.0  0.7403277519763787  0.4789831732096945  0.5870508727719417  1.0000
  C   C2        1.0  0.6807469820797182  0.3657865205291735  0.617473989704201  1.0000
  C   C3        1.0  0.7012556507762707  0.2235932543050747  0.6556109202227107  1.0000
  C   C4        1.0  0.6249351307330526  0.15468085853625624  0.6741681182158135  1.0000
  C   C5        1.0  0.5625282896799116  0.2599201645495981  0.6459837037258747  1.0000
  C   C6        1.0  0.46955310038435727  0.24046305894548503  0.651286334263669  1.0000
  C   C7        1.0  0.4150981008010012  0.35976494267007153  0.619170741617521  1.0000
  C   C8        1.0  0.3269865633344232  0.34381058517264695  0.6235259319823894  1.0000
  C   C9        1.0  0.2718144097728968  0.4665836160686805  0.5904676733638479  1.0000
  N   N2        1.0  0.22746898705669222  0.5652772925620067  0.5638918110330682  1.0000
  C   C10       1.0  0.2926497952401954  0.20837678057813291  0.6600465463684764  1.0000
  C   C11       1.0  0.3461723955760398  0.08932155174203538  0.6921000978748524  1.0000
  C   C12       1.0  0.43410087890606364  0.10483761698107652  0.6878632797243214  1.0000
  O   O1        1.0  0.5982445770942217  0.3846423861783006  0.6124840532655476  1.0000
  H   H1        1.0  0.7640013757154316  0.17564056518029125  0.6684212134090941  1.0000
  H   H2        1.0  0.6168772083927282  0.04137076394419248  0.7045736617947276  1.0000
  H   H3        1.0  0.4410764314498471  0.4651564552988794  0.5907465065575082  1.0000
  H   H4        1.0  0.22461392020474602  0.1948642680911119  0.6637330437764968  1.0000
  H   H5        1.0  0.3194594618765906  0.9846505503445523  0.7203304336933367  1.0000
  H   H6        1.0  0.4737484410593172  0.010537494499020195  0.7132601994515593  1.0000
  C   C13       1.0  0.010391013237930569  0.14387657602870463  0.5652255234751924  1.0000
  C   C14       1.0  0.05063078872900495  0.22539925190819443  0.4627757134513435  1.0000
  C   C15       1.0  0.08250132222940976  0.15938775307769015  0.35577235561669185  1.0000
  C   C16       1.0  0.07382109415487492  0.010276892726287512  0.34744457905788906  1.0000
  C   C17       1.0  0.03667270032621506  0.9270378664820348  0.4515569350113804  1.0000
  C   C18       1.0  0.005403289834307712  0.9915689370685022  0.561218554174254  1.0000
  C   C19       1.0  0.1104238249615146  0.9382849959119349  0.23348588231094936  1.0000
  F   F1        1.0  0.10966670870815554  0.0328523974272672  0.12223474258439371  1.0000
  F   F2        1.0  0.0637569858167959  0.8184436940722065  0.20858696759184814  1.0000
  F   F3        1.0  0.1930609066900928  0.8948156060359108  0.2618630177818888  1.0000
  H   H7        1.0  0.8679769591187146  0.22812906010370426  0.7983793576440406  1.0000
  H   H8        1.0  0.05597605679957618  0.3416043495299328  0.4641359392385713  1.0000
  H   H9        1.0  0.11336051247098067  0.22549215310215565  0.27880437073755493  1.0000
  H   H10       1.0  0.03396447250070911  0.8106282070480233  0.4486284468382957  1.0000
  H   H11       1.0  0.966005420598172  0.8624373499185667  0.8756070319406668  1.0000
  C   C20       1.0  0.007817334522016495  0.5675829424524783  0.18186566005878624  1.0000
  C   C21       1.0  0.9189619398363477  0.5797087041559628  0.179446369684914  1.0000
  C   C22       1.0  0.8743385691658255  0.5881792917083153  0.061254301514081844  1.0000
  C   C23       1.0  0.9191474848364464  0.5800159739876236  0.9442732911625771  1.0000
  C   C24       1.0  0.007976945855523443  0.567862547430187  0.944578351793878  1.0000
  C   C25       1.0  0.05182705670170917  0.5622939784611176  0.06387373196470936  1.0000
  N   N3        1.0  0.7833160706829017  0.5983477890260394  0.0628138499015809  1.0000
  C   C26       1.0  0.733140264432775  0.6776822739603965  0.9642150252750006  1.0000
  O   O2        1.0  0.7667841965352734  0.7607334821064422  0.8768156953008681  1.0000
  H   H12       1.0  0.17536974158237162  0.5431657507681171  0.39379529188472406  1.0000
  H   H13       1.0  0.8839517798942811  0.5838550794800477  0.26947665398264764  1.0000
  H   H14       1.0  0.8847569382531205  0.5801274224927873  0.8533165615563503  1.0000
  H   H15       1.0  0.12032573963125115  0.5529650148174301  0.06486124411902039  1.0000
  H   H16       1.0  0.04200172991670348  0.5610094501116096  0.6174107649235778  1.0000
  H   H17       1.0  0.751404353831885  0.5538295469267778  0.14502432459028847  1.0000
  H   H18       1.0  0.6648556515197976  0.6694430840104473  0.9669422036947148  1.0000
  Zn  Zn1       1.0  0.9150468988396625  0.5687608867517433  0.5629382937701475  1.0000
  Zn  Zn2       1.0  0.10073927318995235  0.5666840038102618  0.5635051431508005  1.0000
  C   C27       1.0  0.007978717673426505  0.5620597173929185  0.8004365307606103  1.0000
  C   C28       1.0  0.007809471422308478  0.5733869716908464  0.32600703120408303  1.0000
  C   C29       1.0  0.006340613641961479  0.8313351728360534  0.556800923973928  1.0000
  C   C30       1.0  0.00944752230779966  0.3041097828684294  0.5696427152307417  1.0000
  O   O3        1.0  0.07827615786647901  0.5745403937913245  0.3745973382589052  1.0000
  O   O4        1.0  0.07844825306057568  0.5593289001993704  0.7522760805829396  1.0000
  O   O5        1.0  0.07712451366138606  0.776772247042518  0.5555385943463464  1.0000
  O   O6        1.0  0.07959983382031122  0.357097057946292  0.5713347268818005  1.0000
  O   O7        1.0  0.9361862748415988  0.7783478333260203  0.5551087098388707  1.0000
  O   O8        1.0  0.9375100040190576  0.560906220572462  0.7518461186352112  1.0000
  O   O9        1.0  0.9373379088505208  0.5761176632941181  0.3741658151997851  1.0000
  O   O10       1.0  0.9386615848820062  0.35867431716127807  0.5709033012361022  1.0000
