data_image0
_chemical_formula_structural       NC9NC3OH6C7OH6C7OH6Zn2C4O8
_chemical_formula_sum              "N2 C30 O11 H18 Zn2"
_cell_length_a       15.78231758774541
_cell_length_b       9.274078303013075
_cell_length_c       9.274081674992354
_cell_angle_alpha    86.2431896807078
_cell_angle_beta     89.75780300142802
_cell_angle_gamma    89.04960325712263

_space_group_name_H-M_alt    "P 1"
_space_group_IT_number       1

loop_
  _space_group_symop_operation_xyz
  'x, y, z'

loop_
  _atom_site_type_symbol
  _atom_site_label
  _atom_site_symmetry_multiplicity
  _atom_site_fract_x
  _atom_site_fract_y
  _atom_site_fract_z
  _atom_site_occupancy
  N   N1        1.0  0.7939294619336373  0.5551906407388207  0.41755263971739676  1.0000
  C   C1        1.0  0.7458511039463029  0.46429945789609817  0.4440006058890733  1.0000
  C   C2        1.0  0.6861599016866813  0.35148141037718195  0.47682934953151923  1.0000
  C   C3        1.0  0.7065301686307287  0.20976297184936654  0.5179794061467304  1.0000
  C   C4        1.0  0.630142274112243  0.14108141098266813  0.5380050776564653  1.0000
  C   C5        1.0  0.5678377003198338  0.24596968596150148  0.5075951425299801  1.0000
  C   C6        1.0  0.47484323462738737  0.22657836050575209  0.5133193247607539  1.0000
  C   C7        1.0  0.4205048309483594  0.34548072419174103  0.4786626852270892  1.0000
  C   C8        1.0  0.3323774585247002  0.3295803734973135  0.48336432497754966  1.0000
  C   C9        1.0  0.27732532642237373  0.45194218104336903  0.4476901799468527  1.0000
  N   N2        1.0  0.2330763906482075  0.5503052746731059  0.4190113409094356  1.0000
  C   C10       1.0  0.2979080778676872  0.19460070985614952  0.5227764409739664  1.0000
  C   C11       1.0  0.3513143058498801  0.0759442168390081  0.5573662647566966  1.0000
  C   C12       1.0  0.4392581942361575  0.09140774673334762  0.5527923749342685  1.0000
  O   O1        1.0  0.6036755793503319  0.37027495572570657  0.4714472481305405  1.0000
  H   H1        1.0  0.7692294238626728  0.1619699240998389  0.5318002441514122  1.0000
  H   H2        1.0  0.6219740018708065  0.02814984011532906  0.570813375731799  1.0000
  H   H3        1.0  0.44658637665792883  0.4505187893613407  0.44798783021141153  1.0000
  H   H4        1.0  0.22985879997562264  0.18113391797294787  0.5267561296938434  1.0000
  H   H5        1.0  0.3244988610192989  0.9716242506119993  0.5878318806864131  1.0000
  H   H6        1.0  0.4788135481394876  0.9974235302021084  0.5801991077460238  1.0000
  C   C13       1.0  0.01603705875000694  0.12924078850086684  0.41699785590872174  1.0000
  C   C14       1.0  9.93808531646323e-05  0.21172030678297427  0.28682680350124423  1.0000
  C   C15       1.0  0.9768234628388262  0.14575891930029883  0.16155488725035605  1.0000
  C   C16       1.0  0.9692603325285402  0.995242667416261  0.16637340563223124  1.0000
  C   C17       1.0  0.9861607674669466  0.9116698817553068  0.2938650427672729  1.0000
  C   C18       1.0  0.010976917077513804  0.9762440502917475  0.41957860289933335  1.0000
  C   C19       1.0  0.9598267600624585  0.23566762065519176  0.02734921639745891  1.0000
  O   O2        1.0  0.9384404853461715  0.17958921738641065  0.9131487012821573  1.0000
  H   H7        1.0  0.01221275426099  0.20908066232381972  0.7718771287799586  1.0000
  H   H8        1.0  0.003900243773408585  0.32851587102831536  0.28373054110124785  1.0000
  H   H9        1.0  0.9510511837839987  0.9417438325834934  0.07115495031305219  1.0000
  H   H10       1.0  0.9817464973513886  0.795274955552294  0.2930793181911866  1.0000
  H   H11       1.0  0.012113441776630207  0.6794700486146785  0.6579640310269654  1.0000
  H   H12       1.0  0.965681583429686  0.35190354496851506  0.025854047560457616  1.0000
  C   C20       1.0  0.014959627960719146  0.5489459687376386  0.9950117124621927  1.0000
  C   C21       1.0  0.08340364456052929  0.6109455006211082  0.0639576165989304  1.0000
  C   C22       1.0  0.14698547100675508  0.683637783970191  0.9839109691589432  1.0000
  C   C23       1.0  0.1421037562903491  0.6947218349124009  0.8328058795542268  1.0000
  C   C24       1.0  0.07544030871447505  0.6318802445118503  0.7626605407383567  1.0000
  C   C25       1.0  0.012054337987654318  0.5565388792358528  0.8415646641149448  1.0000
  C   C26       1.0  0.21738814382694205  0.748486245311504  0.05979103361113869  1.0000
  O   O3        1.0  0.2753024461294855  0.815028969970087  0.990849733454866  1.0000
  H   H13       1.0  0.8147485580724022  0.45749562848400305  0.10542817657063974  1.0000
  H   H14       1.0  0.08623550809069824  0.605561012192823  0.18098994278600178  1.0000
  H   H15       1.0  0.19028289705929247  0.7508236664293788  0.7685317525819899  1.0000
  H   H16       1.0  0.07460982334301547  0.6393403687667487  0.6456068741996819  1.0000
  H   H17       1.0  0.8786323680107171  0.4890276861701781  0.5658255314565688  1.0000
  H   H18       1.0  0.2199132490155904  0.7392903230584138  0.17667849325899398  1.0000
  Zn  Zn1       1.0  0.9206577702911047  0.5537770519466403  0.417981894537345  1.0000
  Zn  Zn2       1.0  0.10634808368012005  0.5517071985202451  0.41859383314319687  1.0000
  C   C27       1.0  0.012635927968713379  0.5493583576680845  0.6815305522700632  1.0000
  C   C28       1.0  0.01437194237836037  0.5561276911391482  0.1550453291105265  1.0000
  C   C29       1.0  0.011948730290093135  0.8160909517140909  0.4133468832585012  1.0000
  C   C30       1.0  0.015059086781620268  0.2893933657849377  0.42322906948102923  1.0000
  O   O4        1.0  0.08464325351443969  0.5577461524334135  0.2089862811244556  1.0000
  O   O5        1.0  0.08329927603727216  0.5461678338206177  0.6280536292568173  1.0000
  O   O6        1.0  0.08274340012816817  0.7615578008385244  0.41149342052440585  1.0000
  O   O7        1.0  0.08519906636928742  0.3423561954691785  0.4255463816045848  1.0000
  O   O8        1.0  0.9418067242349634  0.7631280557055484  0.41102934585955553  1.0000
  O   O9        1.0  0.9423625900524533  0.5477398207036863  0.6275894830166249  1.0000
  O   O10       1.0  0.9437065738336491  0.5593180735159882  0.2085204017526059  1.0000
  O   O11       1.0  0.9442623863757788  0.3439281072059228  0.425080610268616  1.0000
