data_image0
_chemical_formula_structural       NC9NC3OH6C8H10C6SCH8Zn2C4O8
_chemical_formula_sum              "N2 C31 O9 H24 S1 Zn2"
_cell_length_a       15.78231758774541
_cell_length_b       9.275653711864159
_cell_length_c       10.302812801239593
_cell_angle_alpha    85.74330636578323
_cell_angle_beta     90.08384720459999
_cell_angle_gamma    89.08352321082864

_space_group_name_H-M_alt    "P 1"
_space_group_IT_number       1

loop_
  _space_group_symop_operation_xyz
  'x, y, z'

loop_
  _atom_site_type_symbol
  _atom_site_label
  _atom_site_symmetry_multiplicity
  _atom_site_fract_x
  _atom_site_fract_y
  _atom_site_fract_z
  _atom_site_occupancy
  N   N1        1.0  0.7890450749464718  0.569087689603248  0.5748543309704777  1.0000
  C   C1        1.0  0.7410257586222485  0.47797649386453744  0.5986659392792109  1.0000
  C   C2        1.0  0.6814078427524454  0.36488535337491546  0.6282222833778837  1.0000
  C   C3        1.0  0.7018698667434801  0.22282465657778383  0.6652704300080055  1.0000
  C   C4        1.0  0.6255267252443284  0.15397648181182855  0.6832999396132793  1.0000
  C   C5        1.0  0.5631543979705687  0.2591176561431323  0.655921338130804  1.0000
  C   C6        1.0  0.4701728083953989  0.23967865994504245  0.6610749601942156  1.0000
  C   C7        1.0  0.4157569690528797  0.3588693596099579  0.6298729042892515  1.0000
  C   C8        1.0  0.32764018201152073  0.3429298487661443  0.6341059092514154  1.0000
  C   C9        1.0  0.27250832980456663  0.46558846366781625  0.6019877695327449  1.0000
  N   N2        1.0  0.2281953044473758  0.5641901649353684  0.5761676418699355  1.0000
  C   C10       1.0  0.293258945391817  0.20762223962188164  0.6695894412474142  1.0000
  C   C11       1.0  0.34674246553745663  0.08867796337819334  0.7007313434913107  1.0000
  C   C12       1.0  0.4346760544942657  0.1041795902912992  0.6966133544743596  1.0000
  O   O1        1.0  0.5989116091007589  0.3837236147019967  0.6233767084052613  1.0000
  H   H1        1.0  0.7645998720588822  0.17491669326150738  0.677713560595441  1.0000
  H   H2        1.0  0.6174316297703787  0.040772022753940984  0.7128378554409449  1.0000
  H   H3        1.0  0.44176990508782793  0.46416267153315105  0.6022557045544967  1.0000
  H   H4        1.0  0.2252186246836467  0.19412230225709481  0.6731724545694653  1.0000
  H   H5        1.0  0.3199951629436132  0.9841044911800445  0.728160161176997  1.0000
  H   H6        1.0  0.47429266065777853  0.009967347051609732  0.7212881814500274  1.0000
  C   C13       1.0  0.011002486889952756  0.14322323300346884  0.5743065725833165  1.0000
  C   C14       1.0  0.9911156062940263  0.22685098036236173  0.45845958596150393  1.0000
  C   C15       1.0  0.9635884497109087  0.16193097309141602  0.347614247192201  1.0000
  C   C16       1.0  0.9572086423212108  0.011408403119891108  0.3517434765156593  1.0000
  C   C17       1.0  0.9780099629695417  0.9265829925136981  0.4650912025469023  1.0000
  C   C18       1.0  0.006246031297042487  0.9900434215527402  0.5767265769832104  1.0000
  C   C19       1.0  0.9437413446444716  0.2529404579881356  0.22385372387885805  1.0000
  C   C20       1.0  0.023006830055070537  0.2738954241692746  0.14054468335336168  1.0000
  H   H7        1.0  0.08792261195328654  0.406909272448607  0.7544839720718746  1.0000
  H   H8        1.0  0.9951729018346586  0.34362441924856557  0.45497401753170097  1.0000
  H   H9        1.0  0.936917449867142  0.9593938639263211  0.2665248775384128  1.0000
  H   H10       1.0  0.9740914175225557  0.8101555749966629  0.4642870015480911  1.0000
  H   H11       1.0  0.014219701747083757  0.6908472693408946  0.7908413379160777  1.0000
  H   H12       1.0  0.8943417040901338  0.2006109888766019  0.16725159959338964  1.0000
  H   H13       1.0  0.918024957567313  0.3603906471808347  0.24678817446532797  1.0000
  H   H14       1.0  0.07238799809858842  0.3295411692256951  0.1942920883801531  1.0000
  H   H15       1.0  0.04844139793278757  0.16770527501777877  0.1139061602621021  1.0000
  H   H16       1.0  0.0070255810511541394  0.34113269974272886  0.04988393266736324  1.0000
  C   C21       1.0  0.008624288606072561  0.5666333528699619  0.1942681275170257  1.0000
  C   C22       1.0  0.9792393880382495  0.7107411840097682  0.18339630449524247  1.0000
  C   C23       1.0  0.96440112383603  0.7822344610774619  0.0610099823013015  1.0000
  C   C24       1.0  0.979239312495672  0.71074103350414  0.9482451341449938  1.0000
  C   C25       1.0  0.00862423369704124  0.5666333437660735  0.9567650309544251  1.0000
  C   C26       1.0  0.02314705491602309  0.49527134630234415  0.08031792892208589  1.0000
  S   S1        1.0  0.9270310004037703  0.9664583421150055  0.04861530086289645  1.0000
  C   C27       1.0  0.8158518707830248  0.9173245470229596  0.05165014051670935  1.0000
  H   H17       1.0  0.019666653022258007  0.5123079632071248  0.5256794091273886  1.0000
  H   H18       1.0  0.9675665461453731  0.7679812377174291  0.26964462482303464  1.0000
  H   H19       1.0  0.9675663776599165  0.7679810319070131  0.8542943107400207  1.0000
  H   H20       1.0  0.04579761888125011  0.3841052013824633  0.08779735573161362  1.0000
  H   H21       1.0  0.01966507943680651  0.5123072322269295  0.6326638167556431  1.0000
  H   H22       1.0  0.8011861664397012  0.8533485745691849  0.9677755743625442  1.0000
  H   H23       1.0  0.8011865211796257  0.8533500277043446  0.14401027164568392  1.0000
  H   H24       1.0  0.7760745771331969  0.017283921036356897  0.044880764717292854  1.0000
  Zn  Zn1       1.0  0.9157743630006456  0.5676705183373838  0.5752408042201214  1.0000
  Zn  Zn2       1.0  0.10146605399922115  0.565595568116293  0.5757917479556125  1.0000
  C   C28       1.0  0.008654619436560207  0.5608892729528603  0.8126203815324444  1.0000
  C   C29       1.0  0.008587815092193862  0.5723786101233195  0.3384123092848823  1.0000
  C   C30       1.0  0.007140748135484154  0.8299764571558719  0.5710956153387974  1.0000
  C   C31       1.0  0.010101632759873747  0.30328969429906527  0.5799371395566679  1.0000
  O   O2        1.0  0.07904463857345534  0.5735130477443819  0.3869974757592731  1.0000
  O   O3        1.0  0.07913349891963484  0.5581789083860742  0.7644529917688407  1.0000
  O   O4        1.0  0.07791007874219291  0.7754702233168596  0.569420035705628  1.0000
  O   O5        1.0  0.08026799532897333  0.3562217438361275  0.5820303343200504  1.0000
  O   O6        1.0  0.9369723583034237  0.7770443433271979  0.5690022176608489  1.0000
  O   O7        1.0  0.9381957687467928  0.5597547607273035  0.7640351094510893  1.0000
  O   O8        1.0  0.9381069087392955  0.5750888498394819  0.3865780323905774  1.0000
  O   O9        1.0  0.9393302655492679  0.3577975356183454  0.581610988258956  1.0000
