data_image0
_chemical_formula_structural       NC9NC3OH6C6NH7C6NCH9Zn2C4O8
_chemical_formula_sum              "N4 C29 O9 H22 Zn2"
_cell_length_a       15.78231758774541
_cell_length_b       9.274771166103582
_cell_length_c       9.273390368590327
_cell_angle_alpha    86.06293122453995
_cell_angle_beta     90.0787864382203
_cell_angle_gamma    90.23039320205511

_space_group_name_H-M_alt    "P 1"
_space_group_IT_number       1

loop_
  _space_group_symop_operation_xyz
  'x, y, z'

loop_
  _atom_site_type_symbol
  _atom_site_label
  _atom_site_symmetry_multiplicity
  _atom_site_fract_x
  _atom_site_fract_y
  _atom_site_fract_z
  _atom_site_occupancy
  N   N1        1.0  0.8075415160256092  0.5527521513407665  0.4100616256189835  1.0000
  C   C1        1.0  0.7584499756396502  0.46189406035126734  0.43695060338445657  1.0000
  C   C2        1.0  0.6975011690709401  0.3491170885106678  0.47032674957649445  1.0000
  C   C3        1.0  0.7162913822945405  0.2074501015190564  0.5121644401356509  1.0000
  C   C4        1.0  0.6391380135810085  0.13879361327486817  0.5325233583408973  1.0000
  C   C5        1.0  0.5780030163541955  0.24364388419499727  0.5016044911710342  1.0000
  C   C6        1.0  0.4847926605676919  0.22425975398317033  0.5074227577642112  1.0000
  C   C7        1.0  0.4317794949515147  0.34311873160256967  0.4721891968633327  1.0000
  C   C8        1.0  0.3434751248831814  0.3272242940132506  0.47696798280230635  1.0000
  C   C9        1.0  0.2897867581735762  0.4495414379769753  0.44070013142212594  1.0000
  N   N2        1.0  0.24663410896053573  0.5478686254794849  0.4115440292100656  1.0000
  C   C10       1.0  0.30750154376517636  0.192293997857079  0.5170350248129647  1.0000
  C   C11       1.0  0.35958529004019607  0.07368080922527143  0.5522005767481624  1.0000
  C   C12       1.0  0.4477013088560954  0.08913858611635983  0.5475516601969705  1.0000
  O   O1        1.0  0.615226627396723  0.36790393485898765  0.46485345612256546  1.0000
  H   H1        1.0  0.7784575945933992  0.15967431149636857  0.5262171781802327  1.0000
  H   H2        1.0  0.6297106953055889  0.025903070802190342  0.5658796123890346  1.0000
  H   H3        1.0  0.4590315574958901  0.44811837142627997  0.4410046937640073  1.0000
  H   H4        1.0  0.2393023500458685  0.178832210160508  0.5210800525627857  1.0000
  H   H5        1.0  0.33160733223591243  0.9693990064280743  0.5831723564993687  1.0000
  H   H6        1.0  0.48620919528589857  0.9951886848899599  0.5754144094056455  1.0000
  C   C13       1.0  0.02449063597007961  0.12675108247907607  0.41157963523197294  1.0000
  C   C14       1.0  0.004997580892302178  0.20890682739299105  0.28262719959368954  1.0000
  C   C15       1.0  0.9934151478672996  0.14260776396749697  0.15288374056280896  1.0000
  C   C16       1.0  0.001370214172886186  0.9927650037546935  0.15115340644267183  1.0000
  C   C17       1.0  0.019296579896938226  0.9092884380549177  0.2783300274941536  1.0000
  C   C18       1.0  0.02969301728116669  0.9738586960234104  0.410038542217223  1.0000
  N   N3        1.0  0.9744426869158022  0.2278421619700033  0.02251652374753199  1.0000
  H   H7        1.0  0.11983451578497673  0.20870333513489236  0.7273267455673709  1.0000
  H   H8        1.0  0.0007255773300707258  0.32554116387662635  0.28205914613308636  1.0000
  H   H9        1.0  0.9928597076330159  0.940311820216562  0.051330258375339666  1.0000
  H   H10       1.0  0.023030597971028355  0.7930390244063944  0.2742149151832629  1.0000
  H   H11       1.0  0.09047685415912743  0.6783971310428859  0.6248445862445062  1.0000
  H   H12       1.0  0.9686051313937075  0.33998048982327456  0.022450004012332547  1.0000
  H   H13       1.0  0.9660118777903427  0.17943049060442817  0.9250638808682439  1.0000
  C   C19       1.0  0.027103467647632495  0.5458065875355769  0.9875716168966662  1.0000
  C   C20       1.0  0.1049029743191856  0.5420752471976737  0.06144203101396073  1.0000
  C   C21       1.0  0.1814275193832786  0.5517671754864677  0.9862661954004994  1.0000
  C   C22       1.0  0.1820976205031617  0.5655595877777402  0.834615078782774  1.0000
  C   C23       1.0  0.10479959917880532  0.5668527307838538  0.7599412314793774  1.0000
  C   C24       1.0  0.027080193204527703  0.5548031797723714  0.8340465205352454  1.0000
  N   N4        1.0  0.2600643773802167  0.5768963242397218  0.754067573265568  1.0000
  C   C25       1.0  0.3437193550878399  0.5761359376867505  0.8213378816445247  1.0000
  H   H14       1.0  0.8929473853175457  0.47800971016860516  0.2730861789447836  1.0000
  H   H15       1.0  0.10661933156050507  0.5350933588676308  0.1785087581275313  1.0000
  H   H16       1.0  0.23979552060280418  0.5497907093104655  0.0475866952157431  1.0000
  H   H17       1.0  0.10547392059454364  0.5739528503151188  0.6428027980220454  1.0000
  H   H18       1.0  0.828939234892799  0.444943304705155  0.7380926875415841  1.0000
  H   H19       1.0  0.25737401992043596  0.5864860164804369  0.64116506811173  1.0000
  H   H20       1.0  0.34978629693708596  0.6686002047124715  0.8906566498998547  1.0000
  H   H21       1.0  0.35342102733867176  0.4729190135850414  0.8871142835740873  1.0000
  H   H22       1.0  0.3934387883036665  0.5864877181788262  0.7365951065655385  1.0000
  Zn  Zn1       1.0  0.9342541258896233  0.5513391069074964  0.41049773841876713  1.0000
  Zn  Zn2       1.0  0.11992139798341839  0.5492700230552665  0.41111971965743144  1.0000
  C   C26       1.0  0.027047396331875806  0.54735659353996  0.6740550930990479  1.0000
  C   C27       1.0  0.027130166194709204  0.5532543352301855  0.1475625099186073  1.0000
  C   C28       1.0  0.028705443113298257  0.8136763011701249  0.40458647472454556  1.0000
  C   C29       1.0  0.02547204541349113  0.2869328962056217  0.4170312080735128  1.0000
  O   O2        1.0  0.09759884997292634  0.5549623683176574  0.20149296523808657  1.0000
  O   O3        1.0  0.09749586935359456  0.5440770811663302  0.6205962942389409  1.0000
  O   O4        1.0  0.09883381322591833  0.7591336396629107  0.40299847245593834  1.0000
  O   O5        1.0  0.09626084281127945  0.33990581969656075  0.4190906787251434  1.0000
  O   O6        1.0  0.9579146177026445  0.7607033109737686  0.4025267791312195  1.0000
  O   O7        1.0  0.9565766844709985  0.5456484845791532  0.6201245209139838  1.0000
  O   O8        1.0  0.9566796648856882  0.5565337030504005  0.2010194591858816  1.0000
  O   O9        1.0  0.9553416576542466  0.3414771452613863  0.4186172807490496  1.0000
