data_image0
_chemical_formula_structural       NC9NC3OH6C6NCOH7C6FH5Zn2C4O8
_chemical_formula_sum              "N3 C29 O10 H18 F1 Zn2"
_cell_length_a       15.78231758774541
_cell_length_b       10.299619329790078
_cell_length_c       9.275646106892307
_cell_angle_alpha    84.95826498639607
_cell_angle_beta     90.10253560025426
_cell_angle_gamma    89.65730562172189

_space_group_name_H-M_alt    "P 1"
_space_group_IT_number       1

loop_
  _space_group_symop_operation_xyz
  'x, y, z'

loop_
  _atom_site_type_symbol
  _atom_site_label
  _atom_site_symmetry_multiplicity
  _atom_site_fract_x
  _atom_site_fract_y
  _atom_site_fract_z
  _atom_site_occupancy
  N   N1        1.0  0.7979094908170228  0.4285101425485782  0.41082036794275045  1.0000
  C   C1        1.0  0.7493603857370157  0.34619034135605475  0.43757208756724664  1.0000
  C   C2        1.0  0.689084873334007  0.24401145470464014  0.47077786359656093  1.0000
  C   C3        1.0  0.7087208298199683  0.11565915379038394  0.512401416250376  1.0000
  C   C4        1.0  0.6319773627187024  0.05345380951310297  0.5326566726901831  1.0000
  C   C5        1.0  0.5702164304884992  0.14844876189350287  0.5018963573315707  1.0000
  C   C6        1.0  0.4771218267606243  0.13088466875041926  0.5076854551768317  1.0000
  C   C7        1.0  0.42339903816709173  0.23857511348271565  0.4726313717543529  1.0000
  C   C8        1.0  0.3351895840595417  0.22417290185462324  0.47738625133855717  1.0000
  C   C9        1.0  0.280770945165649  0.3349967438552375  0.44130308639163607  1.0000
  N   N2        1.0  0.2370312509661583  0.4240848283300691  0.41229544620885594  1.0000
  C   C10       1.0  0.30002159863500066  0.10191994171299235  0.5172496456008937  1.0000
  C   C11       1.0  0.35281350200784667  0.9944520974974378  0.5522360980097782  1.0000
  C   C12       1.0  0.4408372119929227  0.008458670829764925  0.5476104290569048  1.0000
  O   O1        1.0  0.6066981993175927  0.2610311675681898  0.4653330727314662  1.0000
  H   H1        1.0  0.7711722425456639  0.07237469545233188  0.5263818589309492  1.0000
  H   H2        1.0  0.623223999513289  0.9511730508486828  0.5658423098934398  1.0000
  H   H3        1.0  0.4500242030678396  0.3337096440391014  0.44160533524931034  1.0000
  H   H4        1.0  0.23190279319502063  0.08972203952459878  0.5212744225553014  1.0000
  H   H5        1.0  0.32545815617069235  0.8999679514485857  0.5830504951961761  1.0000
  H   H6        1.0  0.47990601107428404  0.9233364820136  0.5753313318689159  1.0000
  C   C13       1.0  0.017362021687314932  0.04493045993892131  0.4115199609800435  1.0000
  C   C14       1.0  0.9764623844779456  0.054729564722493684  0.27630023311728835  1.0000
  C   C15       1.0  0.9571178147022404  0.9429355903641236  0.2071719840875823  1.0000
  C   C16       1.0  0.9767147482528792  0.8195674986820292  0.27641218936099987  1.0000
  C   C17       1.0  0.017586773536808264  0.8076543674756974  0.41160837276035034  1.0000
  C   C18       1.0  0.037979356949415344  0.9209656075641586  0.47812620935596684  1.0000
  N   N3        1.0  0.914089525841225  0.9567636152853439  0.06980939079173432  1.0000
  C   C19       1.0  0.9273861784373743  0.8730403257546864  0.9562900257844036  1.0000
  O   O2        1.0  0.9868734030814271  0.790658244019545  0.9625574524495861  1.0000
  H   H7        1.0  0.09370633928199679  0.23364936731914443  0.6672960174931857  1.0000
  H   H8        1.0  0.9600303513316947  0.14950464514840434  0.22334561867753933  1.0000
  H   H9        1.0  0.9585846945173052  0.7328355960852259  0.22642565901560707  1.0000
  H   H10       1.0  0.06951839116024905  0.912536032551648  0.582357520061342  1.0000
  H   H11       1.0  0.03213871267143342  0.4755646805861152  0.4645199712748622  1.0000
  H   H12       1.0  0.8748639290280832  0.03798461806335807  0.04630213984486997  1.0000
  H   H13       1.0  0.887140208826404  0.8832253365902745  0.8613761104026763  1.0000
  C   C20       1.0  0.01737699745112442  0.4303581569411541  0.9877238478165418  1.0000
  C   C21       1.0  0.09496363975422084  0.4431495252351365  0.06004688302164363  1.0000
  C   C22       1.0  0.17149641504995738  0.44375732371978915  0.9848583068231309  1.0000
  C   C23       1.0  0.17178659642498628  0.4314540823162485  0.8364816138898847  1.0000
  C   C24       1.0  0.0955283556459483  0.42081470564269696  0.7622313306988406  1.0000
  C   C25       1.0  0.01757179603490533  0.4222266567297692  0.8354044511504526  1.0000
  F   F1        1.0  0.2457018970489877  0.45473445446523364  0.0565441330162495  1.0000
  H   H14       1.0  0.8208691210283479  0.3268295329988018  0.10020453888103065  1.0000
  H   H15       1.0  0.0964698504374577  0.44959289262533275  0.17597993644269527  1.0000
  H   H16       1.0  0.23120463481513487  0.4313985896171877  0.778365906452362  1.0000
  H   H17       1.0  0.09745872781825682  0.414587760582817  0.6463041761219919  1.0000
  H   H18       1.0  0.8845374770237011  0.3578745975760518  0.5601042712761068  1.0000
  Zn  Zn1       1.0  0.9246305424906268  0.4272295436108693  0.411254371246061  1.0000
  Zn  Zn2       1.0  0.11031017038795787  0.42535471467237307  0.4118732402895049  1.0000
  C   C26       1.0  0.017531585139753503  0.41859003640193615  0.6751740627436864  1.0000
  C   C27       1.0  0.01741115587006936  0.4339958386603675  0.14795369740161646  1.0000
  C   C28       1.0  0.017538632432027024  0.663538503039899  0.40584011306396217  1.0000
  C   C29       1.0  0.01740404477616808  0.18904581162954837  0.4172877236387984  1.0000
  O   O3        1.0  0.08788706918728661  0.43449952435264994  0.20196315556032984  1.0000
  O   O4        1.0  0.08798221267824946  0.4166624231940823  0.6216338962761341  1.0000
  O   O5        1.0  0.08798695390631672  0.6144614029952378  0.4041448233178113  1.0000
  O   O6        1.0  0.08788226457720527  0.23670055551952784  0.41945212008969257  1.0000
  O   O7        1.0  0.9470583849380338  0.6158837034049882  0.40367549122709234  1.0000
  O   O8        1.0  0.947053644148249  0.41808628463796293  0.6211644874091757  1.0000
  O   O9        1.0  0.9469585003014643  0.4359233571862655  0.20149201140126216  1.0000
  O   O10       1.0  0.9469536957100515  0.2381243780263842  0.41898108414080415  1.0000
