data_image0
_chemical_formula_structural       NC9NC3OH6C7H8C8H10Zn2C4O8
_chemical_formula_sum              "N2 C31 O9 H24 Zn2"
_cell_length_a       15.78231758774541
_cell_length_b       9.274341958901593
_cell_length_c       9.275657083861812
_cell_angle_alpha    85.8165738975526
_cell_angle_beta     89.58874472212382
_cell_angle_gamma    89.0114341261544

_space_group_name_H-M_alt    "P 1"
_space_group_IT_number       1

loop_
  _space_group_symop_operation_xyz
  'x, y, z'

loop_
  _atom_site_type_symbol
  _atom_site_label
  _atom_site_symmetry_multiplicity
  _atom_site_fract_x
  _atom_site_fract_y
  _atom_site_fract_z
  _atom_site_occupancy
  N   N1        1.0  0.7960253577850811  0.561542970458339  0.4117145110020879  1.0000
  C   C1        1.0  0.7479365538747043  0.47052996239549505  0.4384960893764924  1.0000
  C   C2        1.0  0.6882323850243541  0.35756069869815543  0.4717389268863088  1.0000
  C   C3        1.0  0.7085865136834518  0.21565264099327042  0.5134091448741738  1.0000
  C   C4        1.0  0.6321906572456862  0.14687887089585527  0.5336869137583256  1.0000
  C   C5        1.0  0.5698979497371649  0.25190731281124457  0.502892003455524  1.0000
  C   C6        1.0  0.47690111699143084  0.23248968814860804  0.5086873700963994  1.0000
  C   C7        1.0  0.42257647664021614  0.35155164007712414  0.4735942978695933  1.0000
  C   C8        1.0  0.33444714977769247  0.33562969466162773  0.47835430778393806  1.0000
  C   C9        1.0  0.2794091970149838  0.4581557683038404  0.4422310310710964  1.0000
  N   N2        1.0  0.2351716620300195  0.5566509160762261  0.4131911479894723  1.0000
  C   C10       1.0  0.2999620270351319  0.2004686020189308  0.5182618763918514  1.0000
  C   C11       1.0  0.35335451192316064  0.08165283244808785  0.5532872309534629  1.0000
  C   C12       1.0  0.4413003034567404  0.09713736915086058  0.5486565743729808  1.0000
  O   O1        1.0  0.6057500757573908  0.37637910694952814  0.46628785452650834  1.0000
  H   H1        1.0  0.7712804224578318  0.16779585990498846  0.5274053953085904  1.0000
  H   H2        1.0  0.6240094961066204  0.03379613368894607  0.5669097162369232  1.0000
  H   H3        1.0  0.44867028139307885  0.4567309089624765  0.44253389243984365  1.0000
  H   H4        1.0  0.23191109784012853  0.18698352942238317  0.5222910014133266  1.0000
  H   H5        1.0  0.3265268910591625  0.9771926260724262  0.5841357615132299  1.0000
  H   H6        1.0  0.48084475629446544  0.003026959806828433  0.5764082789868634  1.0000
  C   C13       1.0  0.018295244576593594  0.13549245460321413  0.4127088483568968  1.0000
  C   C14       1.0  0.028989058156699832  0.2180402199953837  0.2807536404250919  1.0000
  C   C15       1.0  0.03124545383068611  0.15239008542030152  0.15016939962008102  1.0000
  C   C16       1.0  0.02193228011130599  0.002854618808897147  0.14839712968134822  1.0000
  C   C17       1.0  0.013883552446432912  0.9186640309546716  0.279294563337656  1.0000
  C   C18       1.0  0.01290984666730921  0.9826903105537103  0.41220932500639273  1.0000
  C   C19       1.0  0.02623251568153706  0.9320944164854692  0.008074182659450813  1.0000
  H   H7        1.0  0.946073692857779  0.21617025913039067  0.7464505313288825  1.0000
  H   H8        1.0  0.033804142466750564  0.33458158738972  0.2782920393473498  1.0000
  H   H9        1.0  0.03936444303328557  0.2186618463242369  0.05011609515960491  1.0000
  H   H10       1.0  0.01031048924191924  0.802190442689592  0.277442178333388  1.0000
  H   H11       1.0  0.9676467075378249  0.6867654564006903  0.6388019973073238  1.0000
  H   H12       1.0  0.0929908386259286  0.9016824664232124  0.9846851548489797  1.0000
  H   H13       1.0  0.0019843865732969146  0.006719717934283498  0.9180314988811524  1.0000
  H   H14       1.0  0.9871090155091576  0.8333878505843828  0.0137087480048812  1.0000
  C   C20       1.0  0.01777483033609739  0.556892793376242  0.9891477303255138  1.0000
  C   C21       1.0  0.06097039282343042  0.6663657253996824  0.054170863180860174  1.0000
  C   C22       1.0  0.09664448774457046  0.7820959703316579  0.9704862303886923  1.0000
  C   C23       1.0  0.09038690373629943  0.7873551419306786  0.8198233535797406  1.0000
  C   C24       1.0  0.04901743559906224  0.67850767092609  0.7533533900349827  1.0000
  C   C25       1.0  0.013430276992902446  0.5612899721615989  0.8357704368332466  1.0000
  C   C26       1.0  0.14372136943915526  0.8972397733186024  0.04177868455728073  1.0000
  C   C27       1.0  0.2370589307388915  0.8550406633536154  0.05996053509186794  1.0000
  H   H15       1.0  0.981201634006007  0.32719232888766636  0.2869825862691202  1.0000
  H   H16       1.0  0.06536865017617477  0.6636425501847847  0.1709121979275916  1.0000
  H   H17       1.0  0.11839369034414382  0.8752024514100105  0.7534811896409095  1.0000
  H   H18       1.0  0.04680111360492267  0.684153507360916  0.6363684226984532  1.0000
  H   H19       1.0  0.9144374848629503  0.39615418221201937  0.567697662069083  1.0000
  H   H20       1.0  0.13841504168169627  0.0020133064319050042  0.9758610201866991  1.0000
  H   H21       1.0  0.11543373649996669  0.9138908932232395  0.14955077865235156  1.0000
  H   H22       1.0  0.2437435756856412  0.7523552644233134  0.12878951513060177  1.0000
  H   H23       1.0  0.26696330203474683  0.8414323731487234  0.9528938193306944  1.0000
  H   H24       1.0  0.2705851937028927  0.9412532620383116  0.11259066401385409  1.0000
  Zn  Zn1       1.0  0.922753473273389  0.5601274192812935  0.4121489563991574  1.0000
  Zn  Zn2       1.0  0.10844353241807436  0.5580547551236865  0.4127684934218283  1.0000
  C   C28       1.0  0.014286131835760996  0.5547121955921952  0.6757439763359694  1.0000
  C   C29       1.0  0.016912889289556254  0.5634717770064277  0.14917362066214346  1.0000
  C   C30       1.0  0.013952933873916606  0.8225221086311445  0.40655937346128534  1.0000
  C   C31       1.0  0.017246034510777664  0.2956601319720684  0.41835830120075923  1.0000
  O   O2        1.0  0.08709206371793132  0.5648868855596443  0.2031148860958787  1.0000
  O   O3        1.0  0.08504142476963783  0.5517228925222191  0.6222725108479075  1.0000
  O   O4        1.0  0.08477140556195617  0.7679828026080233  0.4049040354469884  1.0000
  O   O5        1.0  0.08736202005122484  0.348626985938822  0.42048325319550783  1.0000
  O   O6        1.0  0.9438349222733636  0.7695551891749877  0.4044341964064766  1.0000
  O   O7        1.0  0.9441049308547929  0.5532970117934228  0.6218025939244634  1.0000
  O   O8        1.0  0.9461555790727096  0.5664609455607816  0.20264323608089407  1.0000
  O   O9        1.0  0.9464255349135161  0.35020103618380727  0.42001171126281256  1.0000
