data_image0
_chemical_formula_structural       NC9NC3OH6C7NH5C7H8Zn2C4O8
_chemical_formula_sum              "N3 C30 O9 H19 Zn2"
_cell_length_a       15.78231758774541
_cell_length_b       10.302819778424748
_cell_length_c       9.274345330872308
_cell_angle_alpha    85.12371409326096
_cell_angle_beta     89.64000707228583
_cell_angle_gamma    89.6314472413266

_space_group_name_H-M_alt    "P 1"
_space_group_IT_number       1

loop_
  _space_group_symop_operation_xyz
  'x, y, z'

loop_
  _atom_site_type_symbol
  _atom_site_label
  _atom_site_symmetry_multiplicity
  _atom_site_fract_x
  _atom_site_fract_y
  _atom_site_fract_z
  _atom_site_occupancy
  N   N1        1.0  0.8050459986556523  0.42371614736364993  0.41082278438543485  1.0000
  C   C1        1.0  0.7563939006437547  0.3414944694751936  0.4375812106458159  1.0000
  C   C2        1.0  0.6959905471271253  0.23943737876624738  0.4707953111997716  1.0000
  C   C3        1.0  0.715466333975657  0.11123783042008806  0.5124293300197398  1.0000
  C   C4        1.0  0.6386448486560823  0.049106743926613294  0.5326896501158616  1.0000
  C   C5        1.0  0.5770022422670594  0.1439887681217702  0.5019215838026398  1.0000
  C   C6        1.0  0.48388527723600516  0.12644583421197853  0.5077121040242718  1.0000
  C   C7        1.0  0.43029749743074314  0.23400775617419645  0.47264925308812655  1.0000
  C   C8        1.0  0.3420696697714349  0.21962291650103705  0.47740529815529276  1.0000
  C   C9        1.0  0.2877900113700828  0.3303144710848147  0.4413131115569924  1.0000
  N   N2        1.0  0.24416204635582583  0.41929620960777547  0.4122982192799747  1.0000
  C   C10       1.0  0.30674809033378564  0.09751604858420815  0.5172786382275121  1.0000
  C   C11       1.0  0.359405241033222  0.9901764747415593  0.5522738395174915  1.0000
  C   C12       1.0  0.44744682653663376  0.004166149466121372  0.5476470372470466  1.0000
  O   O1        1.0  0.6136247573290153  0.25643704127648426  0.46534912463157396  1.0000
  H   H1        1.0  0.7778640003163557  0.06800473027576404  0.5264133081721054  1.0000
  H   H2        1.0  0.6297637700642341  0.946947756323805  0.5658836257660802  1.0000
  H   H3        1.0  0.4570422106452566  0.3290285866410618  0.44161547752776986  1.0000
  H   H4        1.0  0.2386137346606897  0.08533285304995997  0.5213044025319147  1.0000
  H   H5        1.0  0.3319311619393971  0.8958052527643788  0.5830959228018135  1.0000
  H   H6        1.0  0.4864088484390464  0.9191455850392317  0.5753748688309615  1.0000
  C   C13       1.0  0.02460803110658838  0.04025307248144472  0.4115667176634823  1.0000
  C   C14       1.0  0.9745793394804116  0.029987145464670517  0.5377766837541176  1.0000
  C   C15       1.0  0.949689572663924  0.9077771699303872  0.6005673354648902  1.0000
  C   C16       1.0  0.9745794078437859  0.794686134933317  0.5377766887133706  1.0000
  C   C17       1.0  0.02460804487891477  0.8027490992296389  0.4115667606043729  1.0000
  C   C18       1.0  0.04936101756583411  0.9260354806811676  0.3491212175465941  1.0000
  C   C19       1.0  0.8984029114412743  0.8983821973561725  0.7299510971491412  1.0000
  N   N3        1.0  0.8571852184569886  0.8908317446075936  0.8339332009598879  1.0000
  H   H7        1.0  0.04355768169628971  0.3714639907779773  0.3637608362303226  1.0000
  H   H8        1.0  0.9548485822663344  0.11679705205816227  0.5875522549030432  1.0000
  H   H9        1.0  0.9548486881711421  0.700647447103986  0.5875522209736925  1.0000
  H   H10       1.0  0.08794137633641164  0.9331027561044497  0.2517926360729783  1.0000
  H   H11       1.0  0.043557758930919066  0.47848090865811127  0.36376094617718246  1.0000
  C   C20       1.0  0.026524825172432154  0.4244009869372771  0.9877707303733483  1.0000
  C   C21       1.0  0.9760741617390538  0.5163577878579442  0.05286079984722858  1.0000
  C   C22       1.0  0.9205578432534882  0.597924749920818  0.9706406529628859  1.0000
  C   C23       1.0  0.9135315387143415  0.5884446856288184  0.8216728359200305  1.0000
  C   C24       1.0  0.9652960149857824  0.5001249993430696  0.7545828950822049  1.0000
  C   C25       1.0  0.02269122208441532  0.41860124366665175  0.8353627260262253  1.0000
  C   C26       1.0  0.8551340899780047  0.6782200313259108  0.7329478252214656  1.0000
  H   H12       1.0  0.12379749775144089  0.14063741148326359  0.11643398784264081  1.0000
  H   H13       1.0  0.9782316100252412  0.5233029322367251  0.16868504198312206  1.0000
  H   H14       1.0  0.8823113789252675  0.6676618239217149  0.02367436237771936  1.0000
  H   H15       1.0  0.962088274976366  0.49719722165809244  0.6381800588567947  1.0000
  H   H16       1.0  0.09126600107808835  0.23021426307450277  0.5716977041931335  1.0000
  H   H17       1.0  0.8897366105023622  0.7680134748824268  0.6939400854050652  1.0000
  H   H18       1.0  0.7995304375324963  0.7052256753298642  0.7983359266241545  1.0000
  H   H19       1.0  0.8313299401945622  0.6304810685430131  0.6382662307632616  1.0000
  Zn  Zn1       1.0  0.9317653632853418  0.42243712390124166  0.41125689013550937  1.0000
  Zn  Zn2       1.0  0.11744259987493777  0.4205645560956075  0.41187591090842046  1.0000
  C   C27       1.0  0.023413984424579093  0.41452542181766106  0.6751497113829457  1.0000
  C   C28       1.0  0.025796005684717516  0.4284778748832163  0.14798323806782343  1.0000
  C   C29       1.0  0.024629689329451088  0.6586605522520792  0.4058158418510396  1.0000
  C   C30       1.0  0.02458023707316226  0.18434118473285066  0.41731718432977805  1.0000
  O   O2        1.0  0.09601495082741285  0.42912982197769334  0.20198693436626725  1.0000
  O   O3        1.0  0.094119767453549  0.41245126250486286  0.6216154220916841  1.0000
  O   O4        1.0  0.09510050786953328  0.6095934671522931  0.40412641369614377  1.0000
  O   O5        1.0  0.09503414754177797  0.23198762799706651  0.41947583434302715  1.0000
  O   O6        1.0  0.9541737522560081  0.6110140526402632  0.40365696648207017  1.0000
  O   O7        1.0  0.9531930121842133  0.41387340834926145  0.6211458979287294  1.0000
  O   O8        1.0  0.9550882034621465  0.430551934451991  0.2015156750977667  1.0000
  O   O9        1.0  0.9541073996836685  0.23340973044504176  0.4190046832744745  1.0000
