data_image0
_chemical_formula_structural       NC9NC3OH6C7F3H5C6NH7Zn2C4O8
_chemical_formula_sum              "N3 C29 O9 H18 F3 Zn2"
_cell_length_a       15.78231758774541
_cell_length_b       9.27228830945605
_cell_length_c       9.274774538082514
_cell_angle_alpha    84.76856818496036
_cell_angle_beta     90.43038941912484
_cell_angle_gamma    89.05832516092083

_space_group_name_H-M_alt    "P 1"
_space_group_IT_number       1

loop_
  _space_group_symop_operation_xyz
  'x, y, z'

loop_
  _atom_site_type_symbol
  _atom_site_label
  _atom_site_symmetry_multiplicity
  _atom_site_fract_x
  _atom_site_fract_y
  _atom_site_fract_z
  _atom_site_occupancy
  N   N1        1.0  0.7828035585328955  0.5846860591715575  0.40240258733879974  1.0000
  C   C1        1.0  0.7349081799390311  0.49324250655964574  0.42964300337468253  1.0000
  C   C2        1.0  0.6754441023355593  0.3797388269964712  0.4634553704394824  1.0000
  C   C3        1.0  0.6960990507800837  0.23716068689777292  0.5058408990586514  1.0000
  C   C4        1.0  0.6198497095708357  0.16806101384690253  0.5264654389976093  1.0000
  C   C5        1.0  0.557334763093575  0.27358475399431237  0.4951411742826488  1.0000
  C   C6        1.0  0.46437991280926544  0.2540741348028994  0.5010345378900714  1.0000
  C   C7        1.0  0.4098017291957741  0.373700125696278  0.46534114692447615  1.0000
  C   C8        1.0  0.3217068966957545  0.3577018160777061  0.4701815219452832  1.0000
  C   C9        1.0  0.2664079433715472  0.480808467427956  0.43344044845757757  1.0000
  N   N2        1.0  0.22196058506715993  0.5797703447168623  0.40390393468771224  1.0000
  C   C10       1.0  0.2875102087337122  0.22189944930027905  0.5107706707101494  1.0000
  C   C11       1.0  0.34115575513186996  0.10252073940801898  0.5463951089186758  1.0000
  C   C12       1.0  0.429067987529193  0.11807956216832372  0.5416862932239677  1.0000
  O   O1        1.0  0.5929225577225489  0.39864505055707666  0.4579095362348724  1.0000
  H   H1        1.0  0.7588939114633458  0.18907871764723305  0.5200783072897068  1.0000
  H   H2        1.0  0.6119084121185454  0.05444406972061033  0.5602582749711276  1.0000
  H   H3        1.0  0.4356710345537971  0.479378492703016  0.433750344722148  1.0000
  H   H4        1.0  0.2194884737956543  0.20834973307080062  0.5148678578531027  1.0000
  H   H5        1.0  0.31455110299448014  0.9975648404432709  0.5777704107716233  1.0000
  H   H6        1.0  0.4688129632646741  0.023523136654916454  0.5699125257314617  1.0000
  C   C13       1.0  0.004887726896596556  0.15835616849846734  0.40538622773324073  1.0000
  C   C14       1.0  0.04473454122938403  0.24091275703950843  0.29152312192595087  1.0000
  C   C15       1.0  0.07619464777608709  0.1759811247940961  0.17259918588325895  1.0000
  C   C16       1.0  0.06748247730242296  0.026954307484107876  0.16334366356229335  1.0000
  C   C17       1.0  0.030733421568953645  0.942664590340387  0.27905452919512364  1.0000
  C   C18       1.0  0.9998846341789914  0.006088967449215721  0.4009328669180956  1.0000
  C   C19       1.0  0.10364810294058846  0.9561124698004959  0.036689537582586196  1.0000
  F   F1        1.0  0.10246426674780196  0.051802606067103296  0.913044600701614  1.0000
  F   F2        1.0  0.05688576038433757  0.8365224451781772  0.009016789722070762  1.0000
  F   F3        1.0  0.18639402930266047  0.9123567008706195  0.06822799312372596  1.0000
  H   H7        1.0  0.8633679682447207  0.24025568870578984  0.6645142796365378  1.0000
  H   H8        1.0  0.05008502664394743  0.35710412740627495  0.29303488200336747  1.0000
  H   H9        1.0  0.10675861610868509  0.24286227759225776  0.08705667678512663  1.0000
  H   H10       1.0  0.02801396110080745  0.8262844848996983  0.27579979637883323  1.0000
  H   H11       1.0  0.9616926477097103  0.8737846049887847  0.750345408534099  1.0000
  C   C20       1.0  0.0008436156251319105  0.5859313621716482  0.9793186276050512  1.0000
  C   C21       1.0  0.060385345658237055  0.6704386619273133  0.04581293403266162  1.0000
  C   C22       1.0  0.12379889682823642  0.743013296472437  0.9648812728468172  1.0000
  C   C23       1.0  0.12818585262993154  0.7314072365511002  0.8159793379132698  1.0000
  C   C24       1.0  0.06889722483697236  0.6500766201728723  0.7477666943106343  1.0000
  C   C25       1.0  0.003928716481818029  0.5785137169169492  0.8270004400372999  1.0000
  N   N3        1.0  0.1843146219107219  0.8273088948528087  0.03438520502240183  1.0000
  H   H12       1.0  0.8758447773256953  0.30518441026988685  0.10628821831112512  1.0000
  H   H13       1.0  0.05881959982870422  0.6773015191366567  0.1617918859004277  1.0000
  H   H14       1.0  0.1771506972323702  0.7866237302840373  0.7523241178867601  1.0000
  H   H15       1.0  0.07269959876167631  0.6460192598535053  0.6316276549732316  1.0000
  H   H16       1.0  0.917109176610844  0.3938441151332017  0.561593402151841  1.0000
  H   H17       1.0  0.1818004715198689  0.8363881229107186  0.14569916444572173  1.0000
  H   H18       1.0  0.23206307370539925  0.8814039940207654  0.9750204512780241  1.0000
  Zn  Zn1       1.0  0.9095348394958803  0.5832635617021016  0.4028441920003245  1.0000
  Zn  Zn2       1.0  0.09522938807947678  0.5811809581765441  0.4034741905429382  1.0000
  C   C26       1.0  0.003377617386349785  0.5741655852212  0.6668006296081124  1.0000
  C   C27       1.0  0.0013886277347505693  0.5902807319172771  0.1395178919092417  1.0000
  C   C28       1.0  0.0008050135230095457  0.8458997854741388  0.3960230960283291  1.0000
  C   C29       1.0  0.003961178748382421  0.31854479750555864  0.4102955113338267  1.0000
  O   O2        1.0  0.07204168937412536  0.5909437857712843  0.19352134269264454  1.0000
  O   O3        1.0  0.07366242635691522  0.5719207982039218  0.6132749233815191  1.0000
  O   O4        1.0  0.07158407169341086  0.7913495989778714  0.39462013811249164  1.0000
  O   O5        1.0  0.07411998021786026  0.37151499698055646  0.4121760194734396  1.0000
  O   O6        1.0  0.930644183989024  0.7929295236104172  0.39414236284723536  1.0000
  O   O7        1.0  0.9327225281337637  0.5735024577075749  0.6127970620488734  1.0000
  O   O8        1.0  0.931101785188664  0.5925254101592112  0.19304174633490168  1.0000
  O   O9        1.0  0.9331800764836955  0.3730966100975901  0.4116965313813419  1.0000
