data_image0
_chemical_formula_structural       NC9NC3OH6C6FH5C6H6Zn2C4O8
_chemical_formula_sum              "N2 C28 O9 H17 F1 Zn2"
_cell_length_a       15.78231758774541
_cell_length_b       9.275642734913903
_cell_length_c       10.681121600428288
_cell_angle_alpha    85.47816350102677
_cell_angle_beta     90.08384876913414
_cell_angle_gamma    90.2347076146716

_space_group_name_H-M_alt    "P 1"
_space_group_IT_number       1

loop_
  _space_group_symop_operation_xyz
  'x, y, z'

loop_
  _atom_site_type_symbol
  _atom_site_label
  _atom_site_symmetry_multiplicity
  _atom_site_fract_x
  _atom_site_fract_y
  _atom_site_fract_z
  _atom_site_occupancy
  N   N1        1.0  0.8075677036176081  0.5694547484220898  0.6190585610398913  1.0000
  C   C1        1.0  0.7584728447842523  0.4783222346483349  0.642391004490867  1.0000
  C   C2        1.0  0.6975199192263843  0.3652046332954322  0.6713525761240962  1.0000
  C   C3        1.0  0.7163049559144544  0.22311069738417078  0.7076564043676201  1.0000
  C   C4        1.0  0.6391490807223995  0.1542464136477304  0.7253225484978887  1.0000
  C   C5        1.0  0.5780179159830581  0.2594121887306611  0.6984933661893056  1.0000
  C   C6        1.0  0.48480685442635824  0.23996864423622788  0.7035421598582388  1.0000
  C   C7        1.0  0.4317980283828999  0.35918723192466073  0.6729687827695019  1.0000
  C   C8        1.0  0.3434930798182722  0.34324399158740704  0.6771155774210122  1.0000
  C   C9        1.0  0.28980917869205297  0.4659313059285104  0.6456447002379277  1.0000
  N   N2        1.0  0.24666011919265574  0.5645560778425414  0.620344933733755  1.0000
  C   C10       1.0  0.3075145742343659  0.20790472341892263  0.7118832126463106  1.0000
  C   C11       1.0  0.35959399004146936  0.0889326168097373  0.7423975815771444  1.0000
  C   C12       1.0  0.44771057142265874  0.10443787076102407  0.7383634795695795  1.0000
  O   O1        1.0  0.6152460660496618  0.3840473023709232  0.6666033203554669  1.0000
  H   H1        1.0  0.778469420949303  0.17519152464249155  0.7198503245386203  1.0000
  H   H2        1.0  0.6297176378651108  0.04101546720900551  0.7542667975378112  1.0000
  H   H3        1.0  0.4590539228909537  0.4645051801819624  0.6459088448397576  1.0000
  H   H4        1.0  0.23931489049403704  0.19440162736684696  0.7153932854699427  1.0000
  H   H5        1.0  0.33161222648371613  0.9843346767042759  0.7692729321903895  1.0000
  H   H6        1.0  0.48621502806846445  0.010203583912550496  0.7625409638623177  1.0000
  C   C13       1.0  0.02449790122297113  0.14349064071566042  0.6202325431724012  1.0000
  C   C14       1.0  0.008098219368672943  0.22698644720671912  0.5070530397680235  1.0000
  C   C15       1.0  0.9996907202359937  0.16180321288764588  0.394283259194804  1.0000
  C   C16       1.0  0.007619530255622342  0.012423994317962928  0.3927002124905101  1.0000
  C   C17       1.0  0.0224878817963019  0.9273557834811516  0.5041234072365766  1.0000
  C   C18       1.0  0.029737956314011882  0.9905090132059979  0.6191817854264972  1.0000
  F   F1        1.0  0.9848188018524049  0.24406858441948565  0.285917999061029  1.0000
  H   H7        1.0  0.11205035851261647  0.22165970948584124  0.9002094056336019  1.0000
  H   H8        1.0  0.0037721696916808156  0.3436600888380643  0.5054376571531438  1.0000
  H   H9        1.0  0.0014332630948290515  0.9620316610802755  0.3050992734329534  1.0000
  H   H10       1.0  0.0263141162227285  0.8111531715176312  0.5006928716570185  1.0000
  H   H11       1.0  0.08529956690733953  0.69246492011376  0.8092625184777724  1.0000
  C   C19       1.0  0.02711793764946102  0.5669998098158535  0.25196194477189127  1.0000
  C   C20       1.0  0.965978173950239  0.48746633936388406  0.19046129442715753  1.0000
  C   C21       1.0  0.9659781216235319  0.4874664324293536  0.059579154204574936  1.0000
  C   C22       1.0  0.02711787148083422  0.5669998812555537  0.9874523801654065  1.0000
  C   C23       1.0  0.08820717053412253  0.64646744002629  0.04895238598183327  1.0000
  C   C24       1.0  0.08820715955572633  0.6464674177838563  0.1798446846408639  1.0000
  H   H12       1.0  0.08894645065209983  0.6474300083371083  0.5452987294342859  1.0000
  H   H13       1.0  0.918053940813127  0.4251242462673501  0.24343686189903768  1.0000
  H   H14       1.0  0.9180539235380949  0.42512431435170095  0.014932832537451146  1.0000
  H   H15       1.0  0.13613766243207337  0.7088177488350909  0.9960211617858303  1.0000
  H   H16       1.0  0.13613761943091074  0.7088176987540444  0.22444552920789285  1.0000
  H   H17       1.0  0.08894671197717363  0.6474295029175492  0.6833697051188579  1.0000
  Zn  Zn1       1.0  0.9342802623565709  0.5680372455701872  0.6194370109675813  1.0000
  Zn  Zn2       1.0  0.11994745914085314  0.5659618098565724  0.6199767354790906  1.0000
  C   C25       1.0  0.02708047230288524  0.5612544305865723  0.8484360769813113  1.0000
  C   C26       1.0  0.0271492879320705  0.5727464218831044  0.3909777960147094  1.0000
  C   C27       1.0  0.02874309783332829  0.8304045629292318  0.614390103184929  1.0000
  C   C28       1.0  0.02548658832691264  0.3035945575140129  0.6250238385416194  1.0000
  O   O2        1.0  0.09761950401585673  0.5738811284782661  0.43783761606178295  1.0000
  O   O3        1.0  0.09752735580107341  0.5585434283135402  0.8019855362086852  1.0000
  O   O4        1.0  0.09886899711269947  0.77588557466576  0.6129917518326016  1.0000
  O   O5        1.0  0.09627779941242331  0.3565389931511489  0.626831306344755  1.0000
  O   O6        1.0  0.9579498587259087  0.7774600629854249  0.6125824399111461  1.0000
  O   O7        1.0  0.9566082281299048  0.5601196493694509  0.8015761553659315  1.0000
  O   O8        1.0  0.9567003760902002  0.5754572992761777  0.4374267296589538  1.0000
  O   O9        1.0  0.9553586714194818  0.3581151536337721  0.6264205138442669  1.0000
