data_image0
_chemical_formula_structural       NC9NC3OH6C6H6C7OH6Zn2C4O8
_chemical_formula_sum              "N2 C29 O10 H18 Zn2"
_cell_length_a       15.78231758774541
_cell_length_b       10.681118228259551
_cell_length_c       9.274081674992354
_cell_angle_alpha    86.07103853506838
_cell_angle_beta     89.75780300142802
_cell_angle_gamma    89.63144314392761

_space_group_name_H-M_alt    "P 1"
_space_group_IT_number       1

loop_
  _space_group_symop_operation_xyz
  'x, y, z'

loop_
  _atom_site_type_symbol
  _atom_site_label
  _atom_site_symmetry_multiplicity
  _atom_site_fract_x
  _atom_site_fract_y
  _atom_site_fract_z
  _atom_site_occupancy
  N   N1        1.0  0.8032204171679886  0.3504407459416925  0.4128142910644572  1.0000
  C   C1        1.0  0.7545990608569325  0.27151591605759706  0.4395391841301781  1.0000
  C   C2        1.0  0.6942338657107364  0.17355102078613927  0.472711661350673  1.0000
  C   C3        1.0  0.7137574842544187  0.05049063910310947  0.5142935051402047  1.0000
  C   C4        1.0  0.6369592752119627  0.9908514052628122  0.5345284353561648  1.0000
  C   C5        1.0  0.5752813205888753  0.08193052867861539  0.5037989270510379  1.0000
  C   C6        1.0  0.4821710080465155  0.06509218402344197  0.5095821906950131  1.0000
  C   C7        1.0  0.428542945922617  0.1683403598445461  0.47456327991302305  1.0000
  C   C8        1.0  0.340320582285249  0.1545333828154687  0.4793133647886798  1.0000
  C   C9        1.0  0.2859994590036575  0.26078554658798714  0.4432664082898774  1.0000
  N   N2        1.0  0.24233815993182642  0.3461985667379601  0.41428787697037617  1.0000
  C   C10       1.0  0.3050448117364848  0.03732457710407622  0.5191367362869204  1.0000
  C   C11       1.0  0.35774216703387063  0.934289901647973  0.5540880822001994  1.0000
  C   C12       1.0  0.44577843699720354  0.947717567876393  0.5494670781564499  1.0000
  O   O1        1.0  0.6118618189912493  0.1898702865626447  0.46727229985054386  1.0000
  H   H1        1.0  0.7761712162485539  0.008989824114255196  0.5282599588125039  1.0000
  H   H2        1.0  0.6281163318774858  0.8927879326521457  0.567680812892033  1.0000
  H   H3        1.0  0.4552520056718349  0.2595495527011331  0.443568395338547  1.0000
  H   H4        1.0  0.23691508109653212  0.025630766712089192  0.5231574555746952  1.0000
  H   H5        1.0  0.3303034982004728  0.8437042658308184  0.5848715397877158  1.0000
  H   H6        1.0  0.48477231430361156  0.8661069201818461  0.5771601617049791  1.0000
  C   C13       1.0  0.022783322095432545  0.9805696696106859  0.41355728956986115  1.0000
  C   C14       1.0  0.05959298188008377  0.9065886020953594  0.5281498085473504  1.0000
  C   C15       1.0  0.05959296914838119  0.7757063635314584  0.528149742605655  1.0000
  C   C16       1.0  0.022783307658937657  0.7160600741902312  0.41355735183012077  1.0000
  C   C17       1.0  0.9860041195854434  0.7900301812048535  0.2990595293189229  1.0000
  C   C18       1.0  0.9860041322997164  0.9209224396345874  0.2990595878615807  1.0000
  H   H7        1.0  0.9855585618511653  0.28652759507356906  0.29767382163998857  1.0000
  H   H8        1.0  0.08844618021272277  0.949781383887823  0.61797278863356  1.0000
  H   H9        1.0  0.08844607612339117  0.7212773561001787  0.6179727628234517  1.0000
  H   H10       1.0  0.9571471592519897  0.7468828879450015  0.20922482114407837  1.0000
  H   H11       1.0  0.9571471370815061  0.9753073271021767  0.2092248093494804  1.0000
  H   H12       1.0  0.9855588751276891  0.4245982381335736  0.2976734327861099  1.0000
  C   C19       1.0  0.02421327653536176  0.3450182213363293  0.9902923900510467  1.0000
  C   C20       1.0  0.09302768815954421  0.3988551541801202  0.0590493942608632  1.0000
  C   C21       1.0  0.15704378982116007  0.46197707555659173  0.9787812682613581  1.0000
  C   C22       1.0  0.15222829298082763  0.4716018467134855  0.8276424078143578  1.0000
  C   C23       1.0  0.08518941978961547  0.4170337172548577  0.7576885345059456  1.0000
  C   C24       1.0  0.021353347812351764  0.3516114809975408  0.8368222076543201  1.0000
  C   C25       1.0  0.2278338776215787  0.5182878597221463  0.05446375267970249  1.0000
  O   O2        1.0  0.28614571670178757  0.5760698475832866  0.9853197104148492  1.0000
  H   H13       1.0  0.8234558678283781  0.26560785036722967  0.10098748469211127  1.0000
  H   H14       1.0  0.09582738390292445  0.39417956497637263  0.17609812588584228  1.0000
  H   H15       1.0  0.20074259497794134  0.5203175457524729  0.7631973500051985  1.0000
  H   H16       1.0  0.08440350238215988  0.4235116727541375  0.6406121384903898  1.0000
  H   H17       1.0  0.8875280552740772  0.2929885292289325  0.561288767830213  1.0000
  H   H18       1.0  0.23030404491402723  0.5103026341287202  0.17137923042686953  1.0000
  Zn  Zn1       1.0  0.9299402805220952  0.34921326433721234  0.41324785280110987  1.0000
  Zn  Zn2       1.0  0.11561822827887047  0.3474159191552719  0.41386609782814143  1.0000
  C   C26       1.0  0.0218920402201499  0.34537631686510917  0.676809973393965  1.0000
  C   C27       1.0  0.02366849570023466  0.3512544282057539  0.15030412545615768  1.0000
  C   C28       1.0  0.022798345309555046  0.5769920132528714  0.407813624576735  1.0000
  C   C29       1.0  0.022762126992360132  0.11963722844658475  0.4193005509072718  1.0000
  O   O3        1.0  0.09394947578045465  0.35265980965562393  0.2042401463486585  1.0000
  O   O4        1.0  0.09253632759385577  0.34260584404225924  0.6233427712560762  1.0000
  O   O5        1.0  0.09326722546609467  0.5296384689234346  0.4061263132296289  1.0000
  O   O6        1.0  0.09321851491402255  0.16562719350449573  0.42145649609219227  1.0000
  O   O7        1.0  0.9523399305241981  0.5310019906026382  0.40565745431850075  1.0000
  O   O8        1.0  0.9516090329076837  0.3439708697075201  0.6228738354925067  1.0000
  O   O9        1.0  0.9530221870052081  0.3540247781834085  0.2037694776539125  1.0000
  O   O10       1.0  0.9522912257702243  0.16699215391688305  0.42098593546180196  1.0000
