data_image0
_chemical_formula_structural       NC9NC3OH6C7H8C6BrH5Zn2C4O8
_chemical_formula_sum              "N2 C29 O9 H19 Br1 Zn2"
_cell_length_a       15.78231758774541
_cell_length_b       9.274341958901593
_cell_length_c       10.302972455390005
_cell_angle_alpha    85.52848279273155
_cell_angle_beta     90.08385913268748
_cell_angle_gamma    89.0114341261544

_space_group_name_H-M_alt    "P 1"
_space_group_IT_number       1

loop_
  _space_group_symop_operation_xyz
  'x, y, z'

loop_
  _atom_site_type_symbol
  _atom_site_label
  _atom_site_symmetry_multiplicity
  _atom_site_fract_x
  _atom_site_fract_y
  _atom_site_fract_z
  _atom_site_occupancy
  N   N1        1.0  0.7878747748588781  0.5697921804782422  0.5695587254172698  1.0000
  C   C1        1.0  0.7399234056080427  0.4786400747114874  0.5936787437455808  1.0000
  C   C2        1.0  0.6803898285723904  0.3654981549329983  0.6236178996389523  1.0000
  C   C3        1.0  0.7009577957193516  0.22337367116231  0.6611469208027168  1.0000
  C   C4        1.0  0.6246659984308973  0.15449458273552708  0.6794094798761745  1.0000
  C   C5        1.0  0.5622152611022546  0.25968296672958635  0.6516749755636071  1.0000
  C   C6        1.0  0.4692481683602676  0.24023524219076653  0.6568943971989949  1.0000
  C   C7        1.0  0.4147434413701577  0.3594794599178728  0.6252888833837125  1.0000
  C   C8        1.0  0.3266385413854245  0.3435327920442597  0.6295758423064417  1.0000
  C   C9        1.0  0.27141521529754636  0.4662464821435104  0.5970425059880307  1.0000
  N   N2        1.0  0.22702865674165373  0.5648924567641891  0.5708886138466245  1.0000
  C   C10       1.0  0.2923582117670064  0.20816442815397473  0.6655173866323414  1.0000
  C   C11       1.0  0.3459304357881138  0.08916674449539252  0.6970619125811579  1.0000
  C   C12       1.0  0.43385246424463786  0.10467533182314859  0.6928914518251899  1.0000
  O   O1        1.0  0.5978795461119344  0.3843448748708038  0.6187085562317325  1.0000
  H   H1        1.0  0.7637235288607059  0.17544419658779753  0.6737522203218969  1.0000
  H   H2        1.0  0.6166553262930333  0.041239293505071606  0.709330591824807  1.0000
  H   H3        1.0  0.44067785386518615  0.46482004980594693  0.5973152689171977  1.0000
  H   H4        1.0  0.2243279587777828  0.19465842915677145  0.6691460961880831  1.0000
  H   H5        1.0  0.3192611199065768  0.9845463175490868  0.7248447083559646  1.0000
  H   H6        1.0  0.4735393301254622  0.010420786150127537  0.7178851850014409  1.0000
  C   C13       1.0  0.01014976427779768  0.1437365002507629  0.5704542452737633  1.0000
  C   C14       1.0  0.020166425121672438  0.22696961234602164  0.45161277934757815  1.0000
  C   C15       1.0  0.021752703432684983  0.16199770396840352  0.33400603348768176  1.0000
  C   C16       1.0  0.012430434979893379  0.012471442142308442  0.3324098921846059  1.0000
  C   C17       1.0  0.005053431885466697  0.9276010014349425  0.45029870571086494  1.0000
  C   C18       1.0  0.00476180297136608  0.9909369506170971  0.570004364680426  1.0000
  C   C19       1.0  0.01601057720162169  0.9424400467422038  0.20603227519973388  1.0000
  H   H7        1.0  0.9396408701900179  0.22268092293046737  0.8710285952119694  1.0000
  H   H8        1.0  0.024968877267131484  0.3435237647619529  0.44939581280878427  1.0000
  H   H9        1.0  0.02935825046088003  0.2287891200145642  0.2438960517809574  1.0000
  H   H10       1.0  0.001470862822155139  0.8111370340554301  0.4486304111977699  1.0000
  H   H11       1.0  0.9606614663599758  0.6938352233164412  0.7740781997827986  1.0000
  H   H12       1.0  0.0826488749918124  0.9121495742127373  0.1849676549005408  1.0000
  H   H13       1.0  0.9913003772842505  0.017533010342682953  0.12493805615480569  1.0000
  H   H14       1.0  0.9769159918511804  0.8437042161319531  0.21110687601317046  1.0000
  C   C20       1.0  0.007455767239534117  0.5673367235175477  0.18898673849526682  1.0000
  C   C21       1.0  0.033089716937527935  0.42110956276178113  0.19809011994350034  1.0000
  C   C22       1.0  0.04580558632705012  0.3485729954740169  0.0856680535719696  1.0000
  C   C23       1.0  0.033089860116991776  0.4211095048657041  0.963007729804576  1.0000
  C   C24       1.0  0.007455807306669948  0.5673367270178775  0.9514718206890751  1.0000
  C   C25       1.0  0.9947625761560321  0.639744141637248  0.06511929946202355  1.0000
  Br  Br1       1.0  0.0806720006968118  0.14967878416550096  0.09970461301673672  1.0000
  H   H15       1.0  0.9978077289228463  0.6223755041797527  0.5128618568542174  1.0000
  H   H16       1.0  0.043293996839729454  0.3628992073228543  0.29219748224314923  1.0000
  H   H17       1.0  0.04329433136818461  0.3628992519117231  0.8771165806021157  1.0000
  H   H18       1.0  0.9749926475055186  0.752520135780236  0.05716036577998018  1.0000
  H   H19       1.0  0.997806541442929  0.6223749758235182  0.6198282295488005  1.0000
  Zn  Zn1       1.0  0.9146051197846897  0.5683743728861206  0.5699499955206773  1.0000
  Zn  Zn2       1.0  0.10029835819904287  0.5662984909877169  0.570507962797026  1.0000
  C   C26       1.0  0.007490465306560834  0.5615900938888163  0.8073488755733862  1.0000
  C   C27       1.0  0.007415028866292195  0.573084567414258  0.33310921529494397  1.0000
  C   C28       1.0  0.005775896398884761  0.8307980933162766  0.5649159067517366  1.0000
  C   C29       1.0  0.009129545431892483  0.3038748355880183  0.5755422540622641  1.0000
  O   O2        1.0  0.07787101294891907  0.5742195167452284  0.3816897840995608  1.0000
  O   O3        1.0  0.07797135945214317  0.5588785100021596  0.7591914178767805  1.0000
  O   O4        1.0  0.07658587341147127  0.7762673847594348  0.5634250766488123  1.0000
  O   O5        1.0  0.07925643555943451  0.3568306530154288  0.5774560277892489  1.0000
  O   O6        1.0  0.9356469790562989  0.7778422115683754  0.5630019303312177  1.0000
  O   O7        1.0  0.9370324540710478  0.560455069919847  0.7587682014162789  1.0000
  O   O8        1.0  0.9369321079437647  0.5757960263941508  0.38126500678259534  1.0000
  O   O9        1.0  0.9383175306164381  0.35840715234684306  0.5770313478133275  1.0000
