data_image0
_chemical_formula_structural       NC9NC3OH6C9H8C6NCOH7Zn2C4O8
_chemical_formula_sum              "N3 C32 O10 H21 Zn2"
_cell_length_a       15.78231758774541
_cell_length_b       9.275152443626249
_cell_length_c       10.29962270195845
_cell_angle_alpha    85.38201048137523
_cell_angle_beta     90.10253899755935
_cell_angle_gamma    90.20707041648352

_space_group_name_H-M_alt    "P 1"
_space_group_IT_number       1

loop_
  _space_group_symop_operation_xyz
  'x, y, z'

loop_
  _atom_site_type_symbol
  _atom_site_label
  _atom_site_symmetry_multiplicity
  _atom_site_fract_x
  _atom_site_fract_y
  _atom_site_fract_z
  _atom_site_occupancy
  N   N1        1.0  0.8068140402967737  0.5692613765816712  0.5651005741696733  1.0000
  C   C1        1.0  0.757750348329458  0.4781184928940252  0.5894618296836389  1.0000
  C   C2        1.0  0.696836108502986  0.3649880200856934  0.6197004196671778  1.0000
  C   C3        1.0  0.7156697237395507  0.2228778864627976  0.6576055545546011  1.0000
  C   C4        1.0  0.6385374075400599  0.1540057799908463  0.676050415355578  1.0000
  C   C5        1.0  0.577370297933741  0.2591835583560087  0.6480375561860856  1.0000
  C   C6        1.0  0.484165901637539  0.23973782825401124  0.6533084688219544  1.0000
  C   C7        1.0  0.4311162923263281  0.3589699627127867  0.6213873555359195  1.0000
  C   C8        1.0  0.3428168106452484  0.34302493285284075  0.625716537985906  1.0000
  C   C9        1.0  0.2890909378792659  0.46572618509375907  0.5928584172004183  1.0000
  N   N2        1.0  0.24590813832152023  0.5643621608093543  0.5664434398653522  1.0000
  C   C10       1.0  0.3068846163468866  0.20767030897317884  0.6620163756429682  1.0000
  C   C11       1.0  0.35900473203428623  0.08868468519731265  0.6938758498724451  1.0000
  C   C12       1.0  0.44711599644427397  0.1041916790443107  0.6896643251568957  1.0000
  O   O1        1.0  0.6145558278404998  0.3838328617447182  0.6147412210221896  1.0000
  H   H1        1.0  0.7778505603406973  0.174953232644379  0.6703376779082417  1.0000
  H   H2        1.0  0.6291446789108158  0.04076193159423247  0.7062712470590158  1.0000
  H   H3        1.0  0.4583361474338922  0.4642998587065579  0.5931349239151946  1.0000
  H   H4        1.0  0.23868956231938263  0.1941656965108327  0.6656808456973544  1.0000
  H   H5        1.0  0.33105876158347  0.9840748791914804  0.7219355567893673  1.0000
  H   H6        1.0  0.48565269202391725  0.009946688670011028  0.7149075220181873  1.0000
  C   C13       1.0  0.023866014321709095  0.14320781415449035  0.5670902080686753  1.0000
  C   C14       1.0  0.993277914658347  0.22624781248322656  0.4566684171643247  1.0000
  C   C15       1.0  0.9705651088499362  0.16101843461250565  0.3442050906808105  1.0000
  C   C16       1.0  0.9780836706819053  0.01159102458353889  0.3399370987669741  1.0000
  C   C17       1.0  0.007014751488181981  0.9268810237474829  0.44942140552524856  1.0000
  C   C18       1.0  0.028864192014323775  0.9904045918597107  0.5644650455547899  1.0000
  C   C19       1.0  0.9551038581255398  0.9446549886342115  0.22347590485996127  1.0000
  C   C20       1.0  0.9358636330438347  0.8885783648280724  0.12595792018086316  1.0000
  C   C21       1.0  0.9125194225583211  0.8205272963340632  0.007636949808930593  1.0000
  H   H7        1.0  0.1456665438610656  0.22359592240759185  0.8268219054223402  1.0000
  H   H8        1.0  0.9888146815068666  0.342814946340807  0.45624626821165615  1.0000
  H   H9        1.0  0.9478942080645492  0.22748013108543774  0.2600274157480513  1.0000
  H   H10       1.0  0.01058126000290227  0.8105298644213452  0.44580950869396907  1.0000
  H   H11       1.0  0.1081533582586689  0.6942859447232804  0.7421005173899455  1.0000
  H   H12       1.0  0.9280109752792789  0.7036370945246833  0.01981668302174855  1.0000
  H   H13       1.0  0.8435554956082294  0.8338727700416737  0.9896473715112659  1.0000
  H   H14       1.0  0.9482822198796602  0.8724458051626263  0.923685399020628  1.0000
  C   C22       1.0  0.026283646614702727  0.5666664627128366  0.1844210474345347  1.0000
  C   C23       1.0  0.9375710948331728  0.5787851351487436  0.18202152380954595  1.0000
  C   C24       1.0  0.8930475086838484  0.5872507704133003  0.06384326392401118  1.0000
  C   C25       1.0  0.9377602595081572  0.5790922253365927  0.9468489461815657  1.0000
  C   C26       1.0  0.026446551727850487  0.5669459042208553  0.9471341949662615  1.0000
  C   C27       1.0  0.07023106417429159  0.5613805908885381  0.06642049756265656  1.0000
  N   N3        1.0  0.8021447962995721  0.5974133227685463  0.06541938843579254  1.0000
  C   C28       1.0  0.7529035596462655  0.6767014251823185  0.9669498905170828  1.0000
  O   O2        1.0  0.7875258447837236  0.7597040778436388  0.8796859460482969  1.0000
  H   H15       1.0  0.1935484162749186  0.5422635464207828  0.39631087569940293  1.0000
  H   H16       1.0  0.9026097796818437  0.582929086314671  0.27205856729996536  1.0000
  H   H17       1.0  0.903371025801377  0.5792036086839301  0.8558923982525535  1.0000
  H   H18       1.0  0.1386198508109613  0.5520570813780514  0.06739280215424293  1.0000
  H   H19       1.0  0.06039060549370867  0.5600968135322795  0.6199554365541577  1.0000
  H   H20       1.0  0.7697086493018884  0.552921108042908  0.14755729193814004  1.0000
  H   H21       1.0  0.6845218881031603  0.6684670522346825  0.9696636378631274  1.0000
  Zn  Zn1       1.0  0.9335270872552336  0.5678437183326992  0.565495601365815  1.0000
  Zn  Zn2       1.0  0.11919499567932679  0.5657680496307236  0.5660590651262845  1.0000
  C   C29       1.0  0.026379965522973947  0.5611464667799329  0.8029829144790663  1.0000
  C   C30       1.0  0.026344155664504543  0.5724670986537521  0.32857187998863036  1.0000
  C   C31       1.0  0.02791395814071973  0.8302644916383031  0.5597862657090884  1.0000
  C   C32       1.0  0.024810089481372755  0.30334734142951136  0.5717686031729252  1.0000
  O   O3        1.0  0.09682442955716408  0.5736198464116118  0.37716406728863383  1.0000
  O   O4        1.0  0.09681733156124972  0.5584172461453691  0.7548180126736108  1.0000
  O   O5        1.0  0.09805510045392873  0.7757334657938366  0.558434990605015  1.0000
  O   O6        1.0  0.09558659734868691  0.356303637754829  0.5735469917614602  1.0000
  O   O7        1.0  0.9571354222265364  0.7773081309184855  0.5580076745315212  1.0000
  O   O8        1.0  0.9558976635399067  0.5599936443457796  0.7543906219866812  1.0000
  O   O9        1.0  0.9559047609621227  0.5751961937714651  0.3767351154073866  1.0000
  O   O10       1.0  0.9546669287101068  0.3578799748328898  0.5731181372768643  1.0000
