data_image0
_chemical_formula_structural       NC9NC3OH6C6NCH9C7H8Zn2C4O8
_chemical_formula_sum              "N3 C30 O9 H23 Zn2"
_cell_length_a       15.78231758774541
_cell_length_b       9.273386996610926
_cell_length_c       9.274345330872308
_cell_angle_alpha    85.02461752765258
_cell_angle_beta     89.64000707228583
_cell_angle_gamma    89.03191128213776

_space_group_name_H-M_alt    "P 1"
_space_group_IT_number       1

loop_
  _space_group_symop_operation_xyz
  'x, y, z'

loop_
  _atom_site_type_symbol
  _atom_site_label
  _atom_site_symmetry_multiplicity
  _atom_site_fract_x
  _atom_site_fract_y
  _atom_site_fract_z
  _atom_site_occupancy
  N   N1        1.0  0.7953270742505052  0.5821831644011837  0.408164804578681  1.0000
  C   C1        1.0  0.7472362582563342  0.4908097858349405  0.4350767330381553  1.0000
  C   C2        1.0  0.6875295921738159  0.37739320976641366  0.4684813671382413  1.0000
  C   C3        1.0  0.7078805265870204  0.23492438446529862  0.5103547256688465  1.0000
  C   C4        1.0  0.63148317590549  0.16587778467926606  0.530731040216234  1.0000
  C   C5        1.0  0.5691928623016069  0.2713206719878549  0.4997858357109637  1.0000
  C   C6        1.0  0.4761956531986072  0.25182511823040654  0.5056091073796936  1.0000
  C   C7        1.0  0.42187360751432235  0.3713592419209957  0.47034544575731685  1.0000
  C   C8        1.0  0.33374397721663174  0.3553732947252517  0.47512834632755907  1.0000
  C   C9        1.0  0.2787086886615582  0.4783853954365844  0.4388295062348757  1.0000
  N   N2        1.0  0.2344732944264241  0.577271264569188  0.40964849119202285  1.0000
  C   C10       1.0  0.2992559539768457  0.21967529689505638  0.5152296514964654  1.0000
  C   C11       1.0  0.35264585270740423  0.10038826982697224  0.5504252483640801  1.0000
  C   C12       1.0  0.4405919384222152  0.1159350681586746  0.5457723283362503  1.0000
  O   O1        1.0  0.6050477550616711  0.3962850231900408  0.46300344337316135  1.0000
  H   H1        1.0  0.7705733214425435  0.18687921526504447  0.5244194170359779  1.0000
  H   H2        1.0  0.6232994803416116  0.05234797006226066  0.5641157396470524  1.0000
  H   H3        1.0  0.44796966596016446  0.47695638536176044  0.43913427286317974  1.0000
  H   H4        1.0  0.23120476625589373  0.2061360482895045  0.5192781609862562  1.0000
  H   H5        1.0  0.3258159938636031  0.9955130396817289  0.5814235162079564  1.0000
  H   H6        1.0  0.4801343487960786  0.021451272415258238  0.5736588874472957  1.0000
  C   C13       1.0  0.017506797484710512  0.15603865352266277  0.40962463695751494  1.0000
  C   C14       1.0  0.03296950993242631  0.24034010120145632  0.27918539060269243  1.0000
  C   C15       1.0  0.040453803949171085  0.17675236116699056  0.14871112250066543  1.0000
  C   C16       1.0  0.032594700733377335  0.026565201496033808  0.14533993342235085  1.0000
  C   C17       1.0  0.01862730536329882  0.9412875838217013  0.27533093355965543  1.0000
  C   C18       1.0  0.012301650717517099  0.0034044905328798336  0.40820119447769776  1.0000
  N   N3        1.0  0.039374725522771215  0.9579695365876705  0.012168993550800922  1.0000
  C   C19       1.0  0.054121252803223996  0.036779065090103424  0.8713835582753942  1.0000
  H   H7        1.0  0.033758171856302255  0.4161880192769878  0.6466208528616777  1.0000
  H   H8        1.0  0.03729943214427922  0.3569511165881669  0.2774294082361679  1.0000
  H   H9        1.0  0.05157874301408216  0.2459803943821186  0.05071703317059262  1.0000
  H   H10       1.0  0.014637864982307125  0.8249485628111921  0.27304072458739914  1.0000
  H   H11       1.0  0.04192780704170174  0.869020651756494  0.7598128041144974  1.0000
  H   H12       1.0  0.033370554364340776  0.8456466643663931  0.015141427317467704  1.0000
  H   H13       1.0  0.0017027665079234477  0.11613086128224093  0.8461310966054172  1.0000
  H   H14       1.0  0.1154528370510326  0.09364303310472155  0.871823654187883  1.0000
  H   H15       1.0  0.05663981451081135  0.9599682652663584  0.7859527253920211  1.0000
  C   C20       1.0  0.01680122574547127  0.582944230183654  0.9851114720183665  1.0000
  C   C21       1.0  0.9657228239821299  0.6851363016427612  0.05002986449020308  1.0000
  C   C22       1.0  0.9096496928624489  0.7757820911045186  0.9676574377160359  1.0000
  C   C23       1.0  0.9026881034902827  0.7652468463171238  0.8187073192990622  1.0000
  C   C24       1.0  0.9550554895173565  0.667096719281433  0.7517822652212289  1.0000
  C   C25       1.0  0.013007214303950132  0.5764989453018152  0.8327142953917313  1.0000
  C   C26       1.0  0.8436778080148741  0.8650146552327267  0.7298147042248302  1.0000
  H   H16       1.0  0.11601099564818362  0.2675962919130985  0.1143044965025557  1.0000
  H   H17       1.0  0.9678328616005905  0.6928544767374181  0.16584114052077537  1.0000
  H   H18       1.0  0.8709271720171294  0.8532812643934731  0.020560952825761536  1.0000
  H   H19       1.0  0.951867735830388  0.6638430647022828  0.6353848949547318  1.0000
  H   H20       1.0  0.0828680072454735  0.3671435132957903  0.5694009790521797  1.0000
  H   H21       1.0  0.8776673582560612  0.9648025763936994  0.6906393262453068  1.0000
  H   H22       1.0  0.7878898029418615  0.8950261679671909  0.7951523879536282  1.0000
  H   H23       1.0  0.8201995457837548  0.8119620974311315  0.635222235116021  1.0000
  Zn  Zn1       1.0  0.922055170067494  0.5807617789706376  0.40860129817730395  1.0000
  Zn  Zn2       1.0  0.10774518964405  0.5786807846223185  0.40922381490509596  1.0000
  C   C27       1.0  0.013757800030476997  0.5719694632681163  0.6725088900266005  1.0000
  C   C28       1.0  0.016044575593738175  0.5874748969764412  0.14531636844436324  1.0000
  C   C29       1.0  0.013306929135301404  0.843278104339223  0.4027192370521768  1.0000
  C   C30       1.0  0.01649539342955042  0.3161645225848839  0.415106101060718  1.0000
  O   O2        1.0  0.08625907025342139  0.5881994091756404  0.19931884760256735  1.0000
  O   O3        1.0  0.08447774220037019  0.5696644392286878  0.6189784730476535  1.0000
  O   O4        1.0  0.08411270158578832  0.788749597294558  0.4011214137593968  1.0000
  O   O5        1.0  0.08662404792553668  0.3691142629638444  0.4171757984521298  1.0000
  O   O6        1.0  0.9431762484191417  0.7903283013408813  0.40064931441024165  1.0000
  O   O7        1.0  0.9435412787262211  0.5712448773072316  0.6185062938365393  1.0000
  O   O8        1.0  0.9453226149111411  0.5897798101698168  0.1988449333482074  1.0000
  O   O9        1.0  0.945687592158857  0.37069465281571645  0.4167019924164357  1.0000
