data_image0
_chemical_formula_structural       NC9NC3OH6C6OCH8C6OCH8Zn2C4O8
_chemical_formula_sum              "N2 C30 O11 H22 Zn2"
_cell_length_a       15.78231758774541
_cell_length_b       9.273888216677433
_cell_length_c       9.273891588657152
_cell_angle_alpha    86.27290680644056
_cell_angle_beta     89.76748324947235
_cell_angle_gamma    89.05820199757643

_space_group_name_H-M_alt    "P 1"
_space_group_IT_number       1

loop_
  _space_group_symop_operation_xyz
  'x, y, z'

loop_
  _atom_site_type_symbol
  _atom_site_label
  _atom_site_symmetry_multiplicity
  _atom_site_fract_x
  _atom_site_fract_y
  _atom_site_fract_z
  _atom_site_occupancy
  N   N1        1.0  0.7939097290946246  0.5550315885146468  0.418192588003816  1.0000
  C   C1        1.0  0.7458260252907799  0.46414369464671346  0.44460223620879646  1.0000
  C   C2        1.0  0.6861281876120261  0.35132972958030706  0.47738341794743344  1.0000
  C   C3        1.0  0.7064901106571919  0.20961641126160524  0.5184737275866651  1.0000
  C   C4        1.0  0.6300981805669119  0.14093733936776687  0.5384704448378421  1.0000
  C   C5        1.0  0.5677997867596666  0.24582182896930216  0.508104730122676  1.0000
  C   C6        1.0  0.4748041885860664  0.22643121262733135  0.5138207384783555  1.0000
  C   C7        1.0  0.42047277252448484  0.3453292684688849  0.47921422508087175  1.0000
  C   C8        1.0  0.3323444722818378  0.32942949995296966  0.4839091625904193  1.0000
  C   C9        1.0  0.27729953019736336  0.45178687348390145  0.44828660197980486  1.0000
  N   N2        1.0  0.23305637412815083  0.5501464026076857  0.4196492301355401  1.0000
  C   C10       1.0  0.29786716601201774  0.194454732951308  0.5232643756439439  1.0000
  C   C11       1.0  0.3512664213031921  0.07580253931170389  0.5578041770104822  1.0000
  C   C12       1.0  0.4392112118797432  0.09126550289262791  0.5532368052826675  1.0000
  O   O1        1.0  0.6036449791454583  0.3701226027398219  0.47200924074375483  1.0000
  H   H1        1.0  0.7691865464284454  0.16182508510167182  0.5322744157685102  1.0000
  H   H2        1.0  0.6219232609661514  0.028009850196426767  0.5712311324074997  1.0000
  H   H3        1.0  0.4465604852462875  0.45036352270849456  0.44858365055171  1.0000
  H   H4        1.0  0.2298171020717853  0.18098843392897357  0.5272383878723523  1.0000
  H   H5        1.0  0.3244448516679124  0.9714863580039125  0.588225815186393  1.0000
  H   H6        1.0  0.4787610438290774  0.9972846926032438  0.5806039169801553  1.0000
  C   C13       1.0  0.015980020547266438  0.12908582516901523  0.4174565031508659  1.0000
  C   C14       1.0  0.9966218103863003  0.21140229008647515  0.2886448320811923  1.0000
  C   C15       1.0  0.9700359982901995  0.1458627601305429  0.16546424325311904  1.0000
  C   C16       1.0  0.9626532300780299  0.9950108509921235  0.1706319152846758  1.0000
  C   C17       1.0  0.9829073927901993  0.9114642980253825  0.2966738848273831  1.0000
  C   C18       1.0  0.010994172577935446  0.9760811105696082  0.42039775377787647  1.0000
  O   O2        1.0  0.9511772334510552  0.23437900653379162  0.040891953855542784  1.0000
  C   C19       1.0  0.9233383531264653  0.18256721018314948  0.9081499790854544  1.0000
  H   H7        1.0  0.02169924833776493  0.2089073060403004  0.7721907498011586  1.0000
  H   H8        1.0  0.00021487721806590088  0.3281993398350309  0.2843842845575266  1.0000
  H   H9        1.0  0.9420488527144482  0.9409619682119446  0.07733983433026115  1.0000
  H   H10       1.0  0.9785058017767861  0.7950405131618768  0.29617931531926933  1.0000
  H   H11       1.0  0.01840015633481462  0.6792147391362904  0.6583379872907715  1.0000
  H   H12       1.0  0.862476653181172  0.12527012123692916  0.924560369228407  1.0000
  H   H13       1.0  0.9721306141849042  0.10902615174234653  0.8650903696944026  1.0000
  H   H14       1.0  0.9132983761645747  0.275645266446674  0.8284249023110628  1.0000
  C   C20       1.0  0.014897763839028189  0.5487485429929653  0.995643135439491  1.0000
  C   C21       1.0  0.08393323591289614  0.608890440887726  0.0646585404348794  1.0000
  C   C22       1.0  0.14809880106829088  0.679854780523669  0.9853119523977019  1.0000
  C   C23       1.0  0.1434577246682971  0.6910360249774932  0.8338948134797843  1.0000
  C   C24       1.0  0.07620763641759964  0.6300010915500596  0.7635400832426944  1.0000
  C   C25       1.0  0.012076429344788808  0.5564183411198906  0.8422110936332672  1.0000
  O   O3        1.0  0.21483059168016894  0.7382467832661257  0.060946423218357415  1.0000
  C   C26       1.0  0.2841626918809965  0.8133690220830523  0.9943650684118555  1.0000
  H   H15       1.0  0.8138652097499067  0.46241361075793175  0.1056842379026266  1.0000
  H   H16       1.0  0.08718760987005081  0.6038266661208278  0.1815857289447127  1.0000
  H   H17       1.0  0.19194656646803843  0.7455634364763077  0.769325824180576  1.0000
  H   H18       1.0  0.07548015579618039  0.6374414294208284  0.64648244982717  1.0000
  H   H19       1.0  0.8780513796984322  0.4925612857031558  0.5660956733612301  1.0000
  H   H20       1.0  0.2608422141760869  0.9112147775328807  0.9302329395588345  1.0000
  H   H21       1.0  0.3199158585663935  0.7414014086447938  0.9238210478468751  1.0000
  H   H22       1.0  0.32733593283288753  0.8473580392835196  0.07947219517695014  1.0000
  Zn  Zn1       1.0  0.9206379560748684  0.5536180525045378  0.418621247130903  1.0000
  Zn  Zn2       1.0  0.1063281486732559  0.5515482748546212  0.41923231326043453  1.0000
  C   C27       1.0  0.012641664962455668  0.5492233734795884  0.6821716838348635  1.0000
  C   C28       1.0  0.014326456333915827  0.5559447522164218  0.1556820310240674  1.0000
  C   C29       1.0  0.011951400153360048  0.8159289815217838  0.414097817879437  1.0000
  C   C30       1.0  0.015016667723265265  0.28923741288933824  0.4237559676025444  1.0000
  O   O4        1.0  0.08460321771079782  0.55756810423665  0.20962442091883293  1.0000
  O   O5        1.0  0.08329947097628465  0.5460280163913191  0.6286926602809852  1.0000
  O   O6        1.0  0.08274111846983101  0.7613961920056738  0.41222111893604896  1.0000
  O   O7        1.0  0.08516150715322124  0.3421999386660226  0.4260958540142632  1.0000
  O   O8        1.0  0.9418045342279698  0.7629663894009509  0.41175770616097096  1.0000
  O   O9        1.0  0.9423628767872364  0.5475999457792993  0.628229176666754  1.0000
  O   O10       1.0  0.9436666296494539  0.55913996766713  0.20915920412087252  1.0000
  O   O11       1.0  0.9442249187889745  0.34377179276059056  0.42563074524970523  1.0000
