data_image0
_chemical_formula_structural       NC9NC3OH6C6FH5C6NCOH7Zn2C4O8
_chemical_formula_sum              "N3 C29 O10 H18 F1 Zn2"
_cell_length_a       15.78231758774541
_cell_length_b       9.275642734913903
_cell_length_c       10.29962270195845
_cell_angle_alpha    85.49692857715169
_cell_angle_beta     90.10253899755935
_cell_angle_gamma    90.2347076146716

_space_group_name_H-M_alt    "P 1"
_space_group_IT_number       1

loop_
  _space_group_symop_operation_xyz
  'x, y, z'

loop_
  _atom_site_type_symbol
  _atom_site_label
  _atom_site_symmetry_multiplicity
  _atom_site_fract_x
  _atom_site_fract_y
  _atom_site_fract_z
  _atom_site_occupancy
  N   N1        1.0  0.8072616147379192  0.5689302502336504  0.5679447728694356  1.0000
  C   C1        1.0  0.7581719275948862  0.4778065984028981  0.5921408369913574  1.0000
  C   C2        1.0  0.697225421436687  0.36469999700366995  0.6221743843042067  1.0000
  C   C3        1.0  0.7160185049526685  0.22261984972356275  0.6598219525024189  1.0000
  C   C4        1.0  0.6388665455025219  0.15376227580140656  0.6781419864526232  1.0000
  C   C5        1.0  0.5777294340125622  0.25891786083780755  0.6503197561388041  1.0000
  C   C6        1.0  0.48451949153271423  0.23947623393600947  0.655555424473693  1.0000
  C   C7        1.0  0.43150388882916185  0.35868320948764554  0.6238504127796929  1.0000
  C   C8        1.0  0.3431998594112071  0.3427415441529382  0.6281506957525926  1.0000
  C   C9        1.0  0.2895089826919119  0.46541690547590076  0.5955149641415858  1.0000
  N   N2        1.0  0.2463543154404644  0.5640320682339419  0.5692787590098423  1.0000
  C   C10       1.0  0.3072290601544594  0.20741548115100006  0.6642052107049794  1.0000
  C   C11       1.0  0.3593152395423614  0.08845496426660215  0.6958490301292828  1.0000
  C   C12       1.0  0.44743092675546436  0.10395868601736602  0.6916656109749832  1.0000
  O   O1        1.0  0.6149505155763845  0.38354086225462747  0.6172493408834174  1.0000
  H   H1        1.0  0.7781856727982657  0.1747053083796093  0.6724672150946136  1.0000
  H   H2        1.0  0.6294415182053085  0.04054232273702674  0.7081575699984419  1.0000
  H   H3        1.0  0.4587537854390777  0.46399088005465394  0.595788885719357  1.0000
  H   H4        1.0  0.2390301544299304  0.19391371826685244  0.6678452044026675  1.0000
  H   H5        1.0  0.33133943296853846  0.983867231742949  0.7237191376087471  1.0000
  H   H6        1.0  0.48594074239685964  0.00973358206858288  0.7167379940489216  1.0000
  C   C13       1.0  0.0241920725591509  0.1429665884197726  0.5691622084550345  1.0000
  C   C14       1.0  0.007767304204858272  0.2264194079724795  0.45179350991244416  1.0000
  C   C15       1.0  0.9993348093882023  0.16119334233271965  0.33484969956965704  1.0000
  C   C16       1.0  0.007263268521849442  0.01181352250283485  0.3332080584082602  1.0000
  C   C17       1.0  0.022156317272627124  0.9267876315371967  0.4487554407649281  1.0000
  C   C18       1.0  0.029431894747294685  0.9899845618196645  0.5680725582497348  1.0000
  F   F1        1.0  0.98443887159283  0.2434175554337772  0.2224734373794266  1.0000
  H   H7        1.0  0.11180658737111537  0.22124199577392423  0.85950205781541  1.0000
  H   H8        1.0  0.003440896474554922  0.34309243606205464  0.4501183359679235  1.0000
  H   H9        1.0  0.001057584409302148  0.9613879173735629  0.24236468218704466  1.0000
  H   H10       1.0  0.02598179131286904  0.810583716614951  0.4451979282810803  1.0000
  H   H11       1.0  0.08503563717691054  0.6920126636788777  0.7651888874894945  1.0000
  C   C19       1.0  0.0267304809515283  0.566335883911812  0.18726054299767303  1.0000
  C   C20       1.0  0.9380213855782955  0.5784519992136385  0.18488298379040313  1.0000
  C   C21       1.0  0.8935002139419573  0.586915848163353  0.06672006739650826  1.0000
  C   C22       1.0  0.9382106378395298  0.5787590246030709  0.9497109627462574  1.0000
  C   C23       1.0  0.026893465765150948  0.5666152664555002  0.9499741970015441  1.0000
  C   C24       1.0  0.07067639090941102  0.561051127447554  0.06925041277800004  1.0000
  N   N3        1.0  0.8026004000542342  0.5970762561410603  0.0683146109674897  1.0000
  C   C25       1.0  0.7533817774336546  0.6763476281489322  0.9699888183111138  1.0000
  O   O2        1.0  0.7880277360435075  0.7593327666053773  0.8828753115197596  1.0000
  H   H12       1.0  0.19398829057195432  0.5419381168247746  0.3991061423381421  1.0000
  H   H13       1.0  0.9030612523375487  0.5825950759736598  0.27492753796113  1.0000
  H   H14       1.0  0.9038214359007779  0.5788703844476566  0.8587546166933477  1.0000
  H   H15       1.0  0.13906251835582695  0.5517295852700439  0.07020581902873402  1.0000
  H   H16       1.0  0.06083556607826779  0.5597676209782958  0.6227830249946615  1.0000
  H   H17       1.0  0.7701515632787747  0.5525934296185584  0.15037187481275915  1.0000
  H   H18       1.0  0.6849977573366851  0.6681149927179926  0.9726876413155656  1.0000
  Zn  Zn1       1.0  0.9339742573611884  0.5675128911215876  0.5683372306390884  1.0000
  Zn  Zn2       1.0  0.11964157377666296  0.5654376604018423  0.5688969323658319  1.0000
  C   C26       1.0  0.026825225482750348  0.5608170527409553  0.8058124053575235  1.0000
  C   C27       1.0  0.026792644420681855  0.5721352958734562  0.33142188888080804  1.0000
  C   C28       1.0  0.028435974179104706  0.8298782916042795  0.5631035179941588  1.0000
  C   C29       1.0  0.025181821664847392  0.3030723250098053  0.5741308475186742  1.0000
  O   O3        1.0  0.09727324709249885  0.573287800392579  0.38001616547181394  1.0000
  O   O4        1.0  0.09726181311061066  0.5580884079931596  0.7576425569919245  1.0000
  O   O5        1.0  0.09856156351064893  0.7753587722301247  0.5616534084478961  1.0000
  O   O6        1.0  0.09597343337979747  0.3560174471449793  0.5760052164399949  1.0000
  O   O7        1.0  0.9576423343989194  0.7769331050881927  0.5612289463670941  1.0000
  O   O8        1.0  0.9563425946992267  0.5596644735612966  0.75721802343879  1.0000
  O   O9        1.0  0.9563540280929163  0.5748638151308871  0.3795900706322155  1.0000
  O   O10       1.0  0.9550542143337439  0.35759345160366385  0.5755792189784128  1.0000
