data_image0
_chemical_formula_structural       NC9NC3OH6C6NH7C7F3H5Zn2C4O8
_chemical_formula_sum              "N3 C29 O9 H18 F3 Zn2"
_cell_length_a       15.78231758774541
_cell_length_b       9.274771166103582
_cell_length_c       9.272291681409872
_cell_angle_alpha    85.95122569860638
_cell_angle_beta     90.49794672891421
_cell_angle_gamma    90.23039320205511

_space_group_name_H-M_alt    "P 1"
_space_group_IT_number       1

loop_
  _space_group_symop_operation_xyz
  'x, y, z'

loop_
  _atom_site_type_symbol
  _atom_site_label
  _atom_site_symmetry_multiplicity
  _atom_site_fract_x
  _atom_site_fract_y
  _atom_site_fract_z
  _atom_site_occupancy
  N   N1        1.0  0.8007129892600399  0.5558164273498589  0.40960129896281106  1.0000
  C   C1        1.0  0.7517369326609551  0.464906513440174  0.4364980617553156  1.0000
  C   C2        1.0  0.690931471212582  0.3520652160095388  0.4698838711707962  1.0000
  C   C3        1.0  0.7099013705135777  0.2103175955584664  0.5117336747806898  1.0000
  C   C4        1.0  0.6328354400430135  0.14162186972769453  0.5320984873985071  1.0000
  C   C5        1.0  0.5715676513096661  0.24653173034288556  0.5011706684485204  1.0000
  C   C6        1.0  0.47838228403202626  0.22713638663057178  0.506990619574412  1.0000
  C   C7        1.0  0.4252177960013865  0.34606326962109946  0.47174685768239066  1.0000
  C   C8        1.0  0.3369339500415448  0.3301596219143683  0.47652702719860707  1.0000
  C   C9        1.0  0.28308981880806283  0.4525466646293128  0.4402486753744963  1.0000
  N   N2        1.0  0.23981194887732468  0.5509300444635297  0.41108413174655833  1.0000
  C   C10       1.0  0.3011324503533584  0.1951521048560747  0.5166056696132613  1.0000
  C   C11       1.0  0.35336722695539263  0.07647114192629578  0.5517814028493166  1.0000
  C   C12       1.0  0.44146327943070157  0.09193787863852276  0.5471311403212962  1.0000
  O   O1        1.0  0.6086334226330355  0.3708626109942661  0.46440899306244665  1.0000
  H   H1        1.0  0.7721279370371116  0.16251472180175108  0.5257904814420298  1.0000
  H   H2        1.0  0.6235513814544074  0.028667040002957167  0.5654643989108177  1.0000
  H   H3        1.0  0.45233592617610774  0.4511230110979567  0.44055332589474183  1.0000
  H   H4        1.0  0.2329506293704423  0.1816825212086104  0.5206518684991017  1.0000
  H   H5        1.0  0.3255222879085755  0.9721296474560251  0.5827621497001527  1.0000
  H   H6        1.0  0.48009083183737494  0.9979342777497184  0.5750019564880251  1.0000
  C   C13       1.0  0.017668628808942488  0.12981243283990818  0.4111197480772937  1.0000
  C   C14       1.0  0.9976217439900696  0.21221670679193405  0.28212997750549373  1.0000
  C   C15       1.0  0.9854820839071349  0.14616769693785625  0.15234895452017438  1.0000
  C   C16       1.0  0.9934297187090587  0.9963282715847034  0.1506181194253251  1.0000
  C   C17       1.0  0.01190228733933485  0.9126065993606214  0.2778315612678859  1.0000
  C   C18       1.0  0.02286439137614038  0.9769230165209656  0.4095782088778326  1.0000
  N   N3        1.0  0.9659497169594554  0.23165335067536175  0.02194399315708484  1.0000
  H   H7        1.0  0.1143685911166068  0.21115614851672504  0.7269582750448313  1.0000
  H   H8        1.0  0.9933473007306006  0.3288521380806386  0.2815617595793025  1.0000
  H   H9        1.0  0.9844904879812671  0.9440674764326271  0.05076607007684952  1.0000
  H   H10       1.0  0.01561863167524069  0.7963651167364272  0.2737152575297548  1.0000
  H   H11       1.0  0.08457078528189621  0.6810474575027305  0.6244464445910112  1.0000
  H   H12       1.0  0.9601118757459153  0.3437918067316077  0.02187745416276954  1.0000
  H   H13       1.0  0.9571003645803708  0.1834294990394123  0.9244631353167927  1.0000
  C   C19       1.0  0.018460414999027286  0.5496851252913317  0.9869889688875944  1.0000
  C   C20       1.0  0.07488641844290189  0.45827533628493256  0.06756596572777185  1.0000
  C   C21       1.0  0.13599570018038465  0.3797388516664151  0.9991185950033898  1.0000
  C   C22       1.0  0.14314187334386008  0.3922350975309594  0.8482272431676621  1.0000
  C   C23       1.0  0.08499833740882856  0.478885229079828  0.7664830436282988  1.0000
  C   C24       1.0  0.022072579142739635  0.5570503251999503  0.833708918828886  1.0000
  C   C25       1.0  0.2076535786176399  0.3041578218406822  0.7740205399144053  1.0000
  F   F1        1.0  0.2784474264453669  0.2790142523439909  0.8612235746466999  1.0000
  F   F2        1.0  0.23345587821203972  0.37605696573019554  0.6459023946977154  1.0000
  F   F3        1.0  0.171939514786281  0.17310975423132802  0.7441827887216661  1.0000
  H   H14       1.0  0.9009344665059807  0.8424764166390388  0.06614628473605633  1.0000
  H   H15       1.0  0.0728780841241834  0.4496857899314086  0.1846217203850513  1.0000
  H   H16       1.0  0.1782526155058337  0.31001785007843896  0.06460208400639345  1.0000
  H   H17       1.0  0.08743758286046144  0.4827056835131587  0.6494964066159179  1.0000
  H   H18       1.0  0.8309096021573601  0.6973606859480086  0.719466739592129  1.0000
  Zn  Zn1       1.0  0.9274274721576093  0.5544025423997416  0.4100375380280843  1.0000
  Zn  Zn2       1.0  0.11309741555967912  0.5523322598078508  0.41065969934576807  1.0000
  C   C26       1.0  0.021352678579077633  0.5499120769681629  0.6736711991097604  1.0000
  C   C27       1.0  0.01917424841425497  0.5568245237674674  0.14702618324751282  1.0000
  C   C28       1.0  0.021853401464994704  0.8167511293954555  0.40412456287617715  1.0000
  C   C29       1.0  0.018673451871185076  0.28998373979201597  0.4165728992845974  1.0000
  O   O2        1.0  0.08987455472801309  0.558428617102898  0.2009722527735318  1.0000
  O   O3        1.0  0.09157155475304823  0.5467355953267059  0.6201969225993753  1.0000
  O   O4        1.0  0.091974951366109  0.7622115284328086  0.40253610084146474  1.0000
  O   O5        1.0  0.0894710943605157  0.3429526940809964  0.4186329662041426  1.0000
  O   O6        1.0  0.9510537299967109  0.763782108834586  0.4020642709498108  1.0000
  O   O7        1.0  0.9506503436807401  0.548307907984632  0.619725012684321  1.0000
  O   O8        1.0  0.9489533360092813  0.5600008644202159  0.200498609629562  1.0000
  O   O9        1.0  0.9485498760361586  0.3445249320221031  0.4181594311675747  1.0000
