data_image0
_chemical_formula_structural       NC9NC3OH6C7OH6C6ClH5Zn2C4O8
_chemical_formula_sum              "N2 C29 O10 H17 Cl1 Zn2"
_cell_length_a       15.78231758774541
_cell_length_b       9.274078303013075
_cell_length_c       10.302974078461048
_cell_angle_alpha    85.73623370139752
_cell_angle_beta     90.08385130592438
_cell_angle_gamma    89.04960325712263

_space_group_name_H-M_alt    "P 1"
_space_group_IT_number       1

loop_
  _space_group_symop_operation_xyz
  'x, y, z'

loop_
  _atom_site_type_symbol
  _atom_site_label
  _atom_site_symmetry_multiplicity
  _atom_site_fract_x
  _atom_site_fract_y
  _atom_site_fract_z
  _atom_site_occupancy
  N   N1        1.0  0.7884986702431539  0.5693840381410402  0.5746995621855775  1.0000
  C   C1        1.0  0.7405110788737307  0.4782556363526662  0.5985210798612486  1.0000
  C   C2        1.0  0.680932541384298  0.36514313897309303  0.628089723887499  1.0000
  C   C3        1.0  0.7014440309630677  0.22305561448303757  0.6651533224512287  1.0000
  C   C4        1.0  0.625124862427614  0.1541944379645852  0.6831903195019591  1.0000
  C   C5        1.0  0.5627159249595856  0.25935546785777386  0.655800281174272  1.0000
  C   C6        1.0  0.46974110405411523  0.23991280066691  0.6609560162997645  1.0000
  C   C7        1.0  0.4152837624598534  0.3591260091050674  0.6297409978793806  1.0000
  C   C8        1.0  0.3271725255657096  0.34318348813496735  0.6339757353897524  1.0000
  C   C9        1.0  0.2719979635770814  0.46586526671457107  0.6018442561335782  1.0000
  N   N2        1.0  0.2276506050656753  0.5644855885906992  0.5760134052237951  1.0000
  C   C10       1.0  0.292838403115339  0.20785032658996183  0.6694739817104727  1.0000
  C   C11       1.0  0.3463633397081873  0.08888358810915209  0.7006288196019803  1.0000
  C   C12       1.0  0.4342915309891682  0.10438814245558659  0.6965091456525998  1.0000
  O   O1        1.0  0.5984297482461389  0.3839849578414578  0.6232420988253886  1.0000
  H   H1        1.0  0.7641907178468162  0.1751386039078544  0.6776016647806176  1.0000
  H   H2        1.0  0.6170691847893462  0.04096860061839713  0.7127405483338161  1.0000
  H   H3        1.0  0.4412600353168104  0.46443920532699856  0.6021123478648036  1.0000
  H   H4        1.0  0.2248027830933388  0.19434783980470138  0.6730584624440323  1.0000
  H   H5        1.0  0.31965244964384304  0.9842903675516382  0.728069009280806  1.0000
  H   H6        1.0  0.47394094189594305  0.010158107541974992  0.7211942184430666  1.0000
  C   C13       1.0  0.01060436310026791  0.14343916190877604  0.5741998718797616  1.0000
  C   C14       1.0  0.9942199519423394  0.22708621948694852  0.4569556193101165  1.0000
  C   C15       1.0  0.9705141139831728  0.16224842962610442  0.3441239880283302  1.0000
  C   C16       1.0  0.9629675203174829  0.011688959150408573  0.34846399739083855  1.0000
  C   C17       1.0  0.9803054930476268  0.9269726665920157  0.4632949173866867  1.0000
  C   C18       1.0  0.005553078278033086  0.9904192762834765  0.5765243345493758  1.0000
  C   C19       1.0  0.953056831562656  0.25336085785865214  0.22324577986496186  1.0000
  O   O2        1.0  0.9312786327772951  0.1983067498272688  0.12038609032470249  1.0000
  H   H7        1.0  0.00799796667859387  0.22009602776818316  0.8938374128746842  1.0000
  H   H8        1.0  0.9980101888180556  0.3439095549452904  0.45416683513626843  1.0000
  H   H9        1.0  0.9444315919220622  0.9590441643383654  0.2627013303595622  1.0000
  H   H10       1.0  0.9758885264085663  0.8105847877647561  0.4625872201764001  1.0000
  H   H11       1.0  0.007507716511097717  0.6915071313725561  0.7912365983546086  1.0000
  H   H12       1.0  0.9589065236688383  0.36961019274474993  0.22189909064706392  1.0000
  C   C20       1.0  0.00807872057335901  0.5669292497402607  0.19411959236983511  1.0000
  C   C21       1.0  0.9942320899108603  0.41730849092637  0.20289809728229558  1.0000
  C   C22       1.0  0.9873618129339452  0.3430707451355266  0.09029696090850137  1.0000
  C   C23       1.0  0.9942321273239132  0.41730857194947535  0.9677901986480899  1.0000
  C   C24       1.0  0.008078718855877964  0.5669291753224792  0.9566046112324922  1.0000
  C   C25       1.0  0.014934553102111225  0.6410102474103274  0.07041975373108045  1.0000
  Cl  Cl1       1.0  0.9700640845078852  0.15615887262790729  0.10276694177863632  1.0000
  H   H13       1.0  0.013294995958083922  0.6232888016836875  0.5181158216364141  1.0000
  H   H14       1.0  0.9887249730752108  0.35780082106819266  0.296914743431987  1.0000
  H   H15       1.0  0.9887250324119359  0.35780079982950785  0.8817137774787587  1.0000
  H   H16       1.0  0.025613452257459146  0.7564022678492968  0.06272118211512723  1.0000
  H   H17       1.0  0.013294834790349652  0.6232887907202838  0.6250881906376144  1.0000
  Zn  Zn1       1.0  0.9152284517576865  0.5679665992465437  0.5750861893165407  1.0000
  Zn  Zn2       1.0  0.10092086525516653  0.5658912571776598  0.57563735859062  1.0000
  C   C26       1.0  0.008111080507367419  0.5611840659374412  0.8124628166090673  1.0000
  C   C27       1.0  0.008040253408816644  0.5726755874485321  0.33826086973476466  1.0000
  C   C28       1.0  0.006503504889015632  0.8303220716809256  0.5709114636537349  1.0000
  C   C29       1.0  0.009647775996704633  0.3035358497568068  0.5798122869626483  1.0000
  O   O3        1.0  0.07849668417751432  0.5738102377880685  0.38684514776588297  1.0000
  O   O4        1.0  0.0785909014416768  0.5584731910433776  0.764296486595957  1.0000
  O   O5        1.0  0.07729181383934924  0.775805545012783  0.5692420613641653  1.0000
  O   O6        1.0  0.07979570835407568  0.35647789484327785  0.5818994754955213  1.0000
  O   O7        1.0  0.9363535452910605  0.7773799622907074  0.5688240722167275  1.0000
  O   O8        1.0  0.9376526225561351  0.5600493409793257  0.7638784329810562  1.0000
  O   O9        1.0  0.9375584056480768  0.5753863374684476  0.38642553313014094  1.0000
  O   O10       1.0  0.9388574298826875  0.3580539842088244  0.5814799581670216  1.0000
