data_image0
_chemical_formula_structural       NC9NC3OH6C9H8C8H10Zn2C4O8
_chemical_formula_sum              "N2 C33 O9 H24 Zn2"
_cell_length_a       15.78231758774541
_cell_length_b       9.275152443626249
_cell_length_c       9.275657083861812
_cell_angle_alpha    85.66173263315568
_cell_angle_beta     89.58874472212382
_cell_angle_gamma    90.20707041648352

_space_group_name_H-M_alt    "P 1"
_space_group_IT_number       1

loop_
  _space_group_symop_operation_xyz
  'x, y, z'

loop_
  _atom_site_type_symbol
  _atom_site_label
  _atom_site_symmetry_multiplicity
  _atom_site_fract_x
  _atom_site_fract_y
  _atom_site_fract_z
  _atom_site_occupancy
  N   N1        1.0  0.8151924186871823  0.5615147674655974  0.4072644492506432  1.0000
  C   C1        1.0  0.7659864813380042  0.4705034031866615  0.434305395131243  1.0000
  C   C2        1.0  0.7048956783710683  0.3575361798246719  0.46787017075546244  1.0000
  C   C3        1.0  0.7235079655080399  0.21563068511805006  0.509944796199133  1.0000
  C   C4        1.0  0.6462679497580669  0.14685815714216188  0.5304185555424674  1.0000
  C   C5        1.0  0.5852644072489911  0.25188470214120606  0.499324336760153  1.0000
  C   C6        1.0  0.4920292340915464  0.23246742817985488  0.5051750394567438  1.0000
  C   C7        1.0  0.4391660121751169  0.351527229733114  0.46974266626393635  1.0000
  C   C8        1.0  0.3508412523957716  0.3356055718835187  0.4745480502996735  1.0000
  C   C9        1.0  0.29730723821177935  0.4581294325850498  0.4380756006186943  1.0000
  N   N2        1.0  0.25427867571852997  0.5566228014387695  0.4087550275412797  1.0000
  C   C10       1.0  0.3146971033290641  0.20044692038229983  0.5148407989634882  1.0000
  C   C11       1.0  0.36663119153216145  0.08163329674041941  0.5502047529243081  1.0000
  C   C12       1.0  0.4547670470368503  0.09711755377732034  0.5455299687432265  1.0000
  O   O1        1.0  0.6226443544716922  0.3763542481971931  0.4623654699778941  1.0000
  H   H1        1.0  0.7856144592352191  0.16777476837002347  0.5240774281709761  1.0000
  H   H2        1.0  0.6366987616789642  0.033777462320046414  0.5639636195105744  1.0000
  H   H3        1.0  0.46655083324357427  0.45670459897803806  0.4383825225302356  1.0000
  H   H4        1.0  0.2464806524592704  0.1869620913393477  0.518908353542723  1.0000
  H   H5        1.0  0.3385213804400836  0.9771749770182138  0.5813509726144641  1.0000
  H   H6        1.0  0.4931563475787091  0.0030088441592910353  0.5735498677910484  1.0000
  C   C13       1.0  0.03223277523888979  0.13547194649933147  0.40947293897951975  1.0000
  C   C14       1.0  0.002289428462098675  0.2179158093522049  0.2869049674654187  1.0000
  C   C15       1.0  0.9802332960674206  0.15207927434246882  0.16207089545917208  1.0000
  C   C16       1.0  0.9877767787060869  0.002628822653249596  0.15733343279864842  1.0000
  C   C17       1.0  0.0160685805961418  0.9185098960859073  0.2788607987477598  1.0000
  C   C18       1.0  0.03724628125659968  0.9826545517075147  0.4065590137335462  1.0000
  C   C19       1.0  0.9654769831131313  0.9350640462290507  0.028061735786799824  1.0000
  C   C20       1.0  0.946806165587666  0.8784609508838633  0.9198169638955909  1.0000
  C   C21       1.0  0.924152831301174  0.8097711015169887  0.7884809186522195  1.0000
  H   H7        1.0  0.15251673128101118  0.21726227145015642  0.6977746140549488  1.0000
  H   H8        1.0  0.9978286602385423  0.33448066414906075  0.286436382955227  1.0000
  H   H9        1.0  0.9580539087636863  0.21808651977007631  0.06863384124386007  1.0000
  H   H10       1.0  0.019656178978078476  0.8021392371680798  0.27485160034314826  1.0000
  H   H11       1.0  0.11549823390129998  0.687494907369946  0.6037340393645363  1.0000
  H   H12       1.0  0.9395732665544446  0.6929466545825773  0.8020003986502511  1.0000
  H   H13       1.0  0.8552939455068236  0.823019454667767  0.768512521995361  1.0000
  H   H14       1.0  0.9604058217651851  0.8612363800794173  0.6952948617941273  1.0000
  C   C22       1.0  0.03688481293230228  0.5568646743702448  0.9847109205790168  1.0000
  C   C23       1.0  0.08142409403316098  0.6663356292055032  0.04942207911355889  1.0000
  C   C24       1.0  0.1185187125612659  0.7820637839361073  0.9654076400040488  1.0000
  C   C25       1.0  0.11232568192375658  0.7873228605493474  0.8147297756867045  1.0000
  C   C26       1.0  0.06962017235490148  0.6784773554365036  0.7485700040333136  1.0000
  C   C27       1.0  0.03259423248333504  0.5612617737382541  0.8313210960725566  1.0000
  C   C28       1.0  0.16700891961807374  0.897205507313396  0.03637195908876145  1.0000
  C   C29       1.0  0.2598285105986995  0.8550071595055919  0.05467406801441044  1.0000
  H   H15       1.0  0.9974921727089702  0.32716835849663206  0.2832003734633721  1.0000
  H   H16       1.0  0.08578892594313547  0.663612503173812  0.16617117432420003  1.0000
  H   H17       1.0  0.14141074480239868  0.8751685834203826  0.7481372658020509  1.0000
  H   H18       1.0  0.06747314982471297  0.6841230899020037  0.6315689472767376  1.0000
  H   H19       1.0  0.9315744914938511  0.3961289663024916  0.5637189228073911  1.0000
  H   H20       1.0  0.16298862799801395  0.0019771481142547565  0.9701557126739511  1.0000
  H   H21       1.0  0.1389256698020771  0.9138563264825279  0.1440966010719098  1.0000
  H   H22       1.0  0.2652527500796453  0.7523236151739885  0.12379567936387725  1.0000
  H   H23       1.0  0.2895658477929868  0.841399115079726  0.9476461329546897  1.0000
  H   H24       1.0  0.2944129846787442  0.9412182011064678  0.10705850956489416  1.0000
  Zn  Zn1       1.0  0.941903159081667  0.5600992418547903  0.40770292866423974  1.0000
  Zn  Zn2       1.0  0.12756777744061032  0.5580266151315243  0.40832837233416  1.0000
  C   C30       1.0  0.03336934882171971  0.5546841159699263  0.671313380824353  1.0000
  C   C31       1.0  0.0361036252062259  0.5634435391775541  0.14471806222670902  1.0000
  C   C32       1.0  0.03632336678061132  0.8224891921000124  0.4013655772736593  1.0000
  C   C33       1.0  0.03314953324744363  0.2956367310833392  0.41466594837714954  1.0000
  O   O2        1.0  0.10630016929546637  0.5648586221725267  0.1986552949053002  1.0000
  O   O3        1.0  0.10408794974322055  0.5516948668896855  0.6178504342073736  1.0000
  O   O4        1.0  0.10647239918975804  0.7679508711100802  0.3998656645561842  1.0000
  O   O5        1.0  0.10391565710299222  0.3486026284169257  0.41663995622537686  1.0000
  O   O6        1.0  0.9655552160611106  0.7695232292782057  0.3993913445520023  1.0000
  O   O7        1.0  0.9631707772562901  0.5532689577307566  0.6173760313824246  1.0000
  O   O8        1.0  0.9653830053506518  0.5664326537446016  0.198179159157718  1.0000
  O   O9        1.0  0.9629984925459399  0.35017665023302413  0.41616392858788687  1.0000
