data_image0
_chemical_formula_structural       NC9NC3OH6C6NH7C6ClH5Zn2C4O8
_chemical_formula_sum              "N3 C28 O9 H18 Cl1 Zn2"
_cell_length_a       15.78231758774541
_cell_length_b       9.274771166103582
_cell_length_c       10.302974078461048
_cell_angle_alpha    85.4557754151483
_cell_angle_beta     90.08385130592438
_cell_angle_gamma    90.23039320205511

_space_group_name_H-M_alt    "P 1"
_space_group_IT_number       1

loop_
  _space_group_symop_operation_xyz
  'x, y, z'

loop_
  _atom_site_type_symbol
  _atom_site_label
  _atom_site_symmetry_multiplicity
  _atom_site_fract_x
  _atom_site_fract_y
  _atom_site_fract_z
  _atom_site_occupancy
  N   N1        1.0  0.8074977899736926  0.5696505235292575  0.5678203558127428  1.0000
  C   C1        1.0  0.7584069890810726  0.4785066479072406  0.5920413238887581  1.0000
  C   C2        1.0  0.6974591004140401  0.3653749437388609  0.6221057829570311  1.0000
  C   C3        1.0  0.7162504642464057  0.22326329242694176  0.6597922051128309  1.0000
  C   C4        1.0  0.6390976554382947  0.15439042310614637  0.6781310468572972  1.0000
  C   C5        1.0  0.5779618078892219  0.2595693096088043  0.6502800477899613  1.0000
  C   C6        1.0  0.4847516121151007  0.24012334100376242  0.6555210075110867  1.0000
  C   C7        1.0  0.4317374775151326  0.35935679214693006  0.6237834323147429  1.0000
  C   C8        1.0  0.34343323887166793  0.34341156409635354  0.6280880519503249  1.0000
  C   C9        1.0  0.2897438747334972  0.46611417435296976  0.5954188118577175  1.0000
  N   N2        1.0  0.24659042367727863  0.5647512422097649  0.5691556706160252  1.0000
  C   C10       1.0  0.3074607596665341  0.2080554226374347  0.664179514924669  1.0000
  C   C11       1.0  0.3595454730549806  0.08906848330283879  0.6958558292206913  1.0000
  C   C12       1.0  0.44766136401764384  0.10457567036190674  0.6916681929201747  1.0000
  O   O1        1.0  0.615184408214798  0.3842199619958353  0.617175567045718  1.0000
  H   H1        1.0  0.7784170630198369  0.1753381454218883  0.6724505859009426  1.0000
  H   H2        1.0  0.6296712545174843  0.04114535972573896  0.708177587543303  1.0000
  H   H3        1.0  0.4589886824318015  0.46468787081655827  0.5956931545576973  1.0000
  H   H4        1.0  0.2392616771924772  0.19455064309568804  0.6678231821867548  1.0000
  H   H5        1.0  0.331568367028144  0.9844575025513201  0.7237544907151641  1.0000
  H   H6        1.0  0.4861700167211831  0.010329634949484356  0.716766311747135  1.0000
  C   C13       1.0  0.024446951666049266  0.14363332077719781  0.5691877436954653  1.0000
  C   C14       1.0  0.00495035017352663  0.22715961330927215  0.4530303778721412  1.0000
  C   C15       1.0  0.9933643489792686  0.16223950475086824  0.33616047650705805  1.0000
  C   C16       1.0  0.001319367697677487  0.012415135081021544  0.3346018316284678  1.0000
  C   C17       1.0  0.019249230998506395  0.9275868956869496  0.44915958482274365  1.0000
  C   C18       1.0  0.029649290594416122  0.9907573135496582  0.567799562819346  1.0000
  N   N3        1.0  0.9743883027040989  0.2488594871171581  0.21872870858405613  1.0000
  H   H7        1.0  0.11979951507193443  0.2222297124299326  0.8536054239148976  1.0000
  H   H8        1.0  0.0006783309888436229  0.3437999872462798  0.45251868847826593  1.0000
  H   H9        1.0  0.9928061158487907  0.9610229038013226  0.24468345303949768  1.0000
  H   H10       1.0  0.02298313589989931  0.8113812187646714  0.4454527870121072  1.0000
  H   H11       1.0  0.09043903500966555  0.6930127214161323  0.7612918696038997  1.0000
  H   H12       1.0  0.9685507453525968  0.3609985219633933  0.2186687891480421  1.0000
  H   H13       1.0  0.9659548134626109  0.20148357352475288  0.13094562613703786  1.0000
  C   C19       1.0  0.027048122390623597  0.5671953182991845  0.18725114626701678  1.0000
  C   C20       1.0  0.011390167895465764  0.41754915350114397  0.19668549579910355  1.0000
  C   C21       1.0  0.0036211613619048233  0.34329880195286533  0.08440977166446628  1.0000
  C   C22       1.0  0.011390206289392468  0.41754923453800674  0.9615775968097431  1.0000
  C   C23       1.0  0.027048119772233203  0.5671952438687666  0.9497361654558758  1.0000
  C   C24       1.0  0.03480078686763344  0.6412888951104578  0.06322658247565927  1.0000
  Cl  Cl1       1.0  0.9840606591605758  0.1563551913354544  0.09769905827065095  1.0000
  H   H14       1.0  0.03294669213371404  0.6235644402374081  0.5110003302091397  1.0000
  H   H15       1.0  0.005162645271912014  0.3580313790897669  0.2909629866698902  1.0000
  H   H16       1.0  0.005162704351519887  0.3580313578474761  0.8757620208097592  1.0000
  H   H17       1.0  0.046876633334148154  0.7567005094070274  0.05502220380223344  1.0000
  H   H18       1.0  0.032946530833255716  0.6235644292721425  0.6179726992583965  1.0000
  Zn  Zn1       1.0  0.9342104118315618  0.5682328439500437  0.5682131961167973  1.0000
  Zn  Zn2       1.0  0.11987770103091555  0.5661571494828144  0.5687734624034879  1.0000
  C   C25       1.0  0.027010930556364166  0.5614491589495905  0.805619553829177  1.0000
  C   C26       1.0  0.027079220963643236  0.572942631750166  0.3313672352510135  1.0000
  C   C27       1.0  0.028661566485273404  0.8306328650087409  0.5628884667620615  1.0000
  C   C28       1.0  0.025428511037131507  0.30375719344868557  0.5740983941824671  1.0000
  O   O2        1.0  0.09754938792254642  0.5740774747562065  0.37994653967869496  1.0000
  O   O3        1.0  0.09745793336876374  0.5587378237420975  0.7574651066104583  1.0000
  O   O4        1.0  0.09878989292508811  0.7761070812961657  0.5614580311170898  1.0000
  O   O5        1.0  0.09621736507392087  0.3567082282286256  0.5759535176215846  1.0000
  O   O6        1.0  0.9578706844294327  0.7776817659141353  0.5610331407006777  1.0000
  O   O7        1.0  0.9565387355115864  0.5603142413123006  0.7570401441316845  1.0000
  O   O8        1.0  0.9566301898130739  0.5756538420623067  0.3795200163993693  1.0000
  O   O9        1.0  0.9552981668976257  0.3582845852181422  0.575527091694715  1.0000
