data_image0
_chemical_formula_structural       NC9NC3OH6C7NH5C6BrH5Zn2C4O8
_chemical_formula_sum              "N3 C29 O9 H16 Br1 Zn2"
_cell_length_a       15.78231758774541
_cell_length_b       10.302819778424748
_cell_length_c       10.302972455390005
_cell_angle_alpha    85.56070675393316
_cell_angle_beta     90.08385913268748
_cell_angle_gamma    89.6314472413266

_space_group_name_H-M_alt    "P 1"
_space_group_IT_number       1

loop_
  _space_group_symop_operation_xyz
  'x, y, z'

loop_
  _atom_site_type_symbol
  _atom_site_label
  _atom_site_symmetry_multiplicity
  _atom_site_fract_x
  _atom_site_fract_y
  _atom_site_fract_z
  _atom_site_occupancy
  N   N1        1.0  0.7978582038293676  0.41284196738201384  0.5703924675921193  1.0000
  C   C1        1.0  0.749327133274914  0.3308033879801968  0.5944640735535904  1.0000
  C   C2        1.0  0.6890740060123334  0.22897356966340632  0.6243431379320239  1.0000
  C   C3        1.0  0.7087381021206072  0.1010589082446196  0.661796674469433  1.0000
  C   C4        1.0  0.6320082535439555  0.03906645598592107  0.6800226507380456  1.0000
  C   C5        1.0  0.5702264842310697  0.13373794513974402  0.6523440136881198  1.0000
  C   C6        1.0  0.47713570952723733  0.11623463372042009  0.6575531063205005  1.0000
  C   C7        1.0  0.4233893416324424  0.2235566329427432  0.6260109250499095  1.0000
  C   C8        1.0  0.3351830254042015  0.20920433721090914  0.6302894144378046  1.0000
  C   C9        1.0  0.2807401232629116  0.3196489256733859  0.5978212533573255  1.0000
  N   N2        1.0  0.2369809248716941  0.4084321255074779  0.5717197536984682  1.0000
  C   C10       1.0  0.3000417917358357  0.08737030851688932  0.6661590624225713  1.0000
  C   C11       1.0  0.3528572245477422  0.980270194511433  0.6976403867649528  1.0000
  C   C12       1.0  0.44087788318088733  0.9942282096576084  0.693478162872111  1.0000
  O   O1        1.0  0.6066835832964765  0.24593596583709232  0.6194438043244863  1.0000
  H   H1        1.0  0.7711990175217802  0.05792149553766501  0.6743765178646319  1.0000
  H   H2        1.0  0.6232773101818966  0.9371346030676404  0.7098836109593789  1.0000
  H   H3        1.0  0.4499936901291502  0.3183651102134779  0.598093258685064  1.0000
  H   H4        1.0  0.2319256444586031  0.0752146598699106  0.6697805987224401  1.0000
  H   H5        1.0  0.3255225526947145  0.8861098771946955  0.7253676169283485  1.0000
  H   H6        1.0  0.4799653171282531  0.9093973770165645  0.7184218359251968  1.0000
  C   C13       1.0  0.017423601065372996  0.029383982973218314  0.5710617023429425  1.0000
  C   C14       1.0  0.9679657528494706  0.019981666303522605  0.6845988940515078  1.0000
  C   C15       1.0  0.9433599860281193  0.8982013450841629  0.7410847206594648  1.0000
  C   C16       1.0  0.9679658212352755  0.7846806558061036  0.6845988985128011  1.0000
  C   C17       1.0  0.017423615031919137  0.7918800100152422  0.5710617409721273  1.0000
  C   C18       1.0  0.041894148638473405  0.914739098608813  0.5148863705706719  1.0000
  C   C19       1.0  0.8926585231859282  0.8896917000224696  0.8574770263492622  1.0000
  N   N3        1.0  0.8519111377422071  0.8828527601879931  0.9510182610101019  1.0000
  H   H7        1.0  0.03615702726936365  0.36026778246023317  0.528056021466871  1.0000
  H   H8        1.0  0.9484601288611053  0.10713216959953709  0.7293764876044648  1.0000
  H   H9        1.0  0.9484602346124518  0.690982564413194  0.7293764570819687  1.0000
  H   H10       1.0  0.08003429352510416  0.9211403888279894  0.42733057639862526  1.0000
  H   H11       1.0  0.036157105001279  0.4672847010926949  0.5280561203739391  1.0000
  C   C20       1.0  0.017423580206541  0.4106320107480643  0.18981917653696279  1.0000
  C   C21       1.0  0.04212756701446829  0.2790248642378028  0.19884489436032493  1.0000
  C   C22       1.0  0.05438212459706104  0.21374061342521378  0.08638430263740138  1.0000
  C   C23       1.0  0.04212770982573022  0.279024812130263  0.963762504190651  1.0000
  C   C24       1.0  0.017423620295937914  0.41063201389842585  0.9523042587326307  1.0000
  C   C25       1.0  0.005190879578224505  0.47580002492311446  0.06599019426188746  1.0000
  Br  Br1       1.0  0.08798362870931631  0.03473214829168958  0.10031522612961186  1.0000
  H   H12       1.0  0.008125572781965573  0.46016793029214487  0.5137235268880593  1.0000
  H   H13       1.0  0.05196164571672868  0.22663446879368432  0.2929213401928481  1.0000
  H   H14       1.0  0.05196198052875611  0.2266345089244901  0.8778404385754963  1.0000
  H   H15       1.0  0.9861381739723305  0.5773005034067693  0.05809115774572193  1.0000
  H   H16       1.0  0.008124381941853942  0.4601674547617711  0.6206898993020236  1.0000
  Zn  Zn1       1.0  0.9245795319046904  0.4115659143523622  0.5707829846748396  1.0000
  Zn  Zn2       1.0  0.11025956830431705  0.40969758228785924  0.5713398494165287  1.0000
  C   C26       1.0  0.017421731353898018  0.4054599379020911  0.808178261486562  1.0000
  C   C27       1.0  0.017419396475365945  0.41580517645765447  0.333944706110078  1.0000
  C   C28       1.0  0.01741924827133623  0.6477521115261147  0.5658882734146711  1.0000
  C   C29       1.0  0.01742181619829153  0.17351144364271986  0.5762347632075344  1.0000
  O   O2        1.0  0.08788259851089886  0.4168266518259154  0.3825258777047549  1.0000
  O   O3        1.0  0.0878853806020563  0.4030194623023349  0.7600193636236239  1.0000
  O   O4        1.0  0.0878824255849826  0.5986734662644775  0.5643684811649641  1.0000
  O   O5        1.0  0.08788549016794689  0.22117265778870476  0.5781766626309914  1.0000
  O   O6        1.0  0.946953546677577  0.6000908394905002  0.5639461712635179  1.0000
  O   O7        1.0  0.9469565016908029  0.404438395358252  0.7595969844997528  1.0000
  O   O8        1.0  0.9469537196558915  0.41824553963901545  0.3821019376977217  1.0000
  O   O9        1.0  0.9469566113094812  0.22259153631585615  0.5777528199595221  1.0000
