data_image0
_chemical_formula_structural       NC9NC3OH6C6OCH8C9H8Zn2C4O8
_chemical_formula_sum              "N2 C32 O10 H22 Zn2"
_cell_length_a       15.78231758774541
_cell_length_b       9.273888216677433
_cell_length_c       9.275155815604963
_cell_angle_alpha    86.25620799071866
_cell_angle_beta     90.4446892459172
_cell_angle_gamma    89.05820199757643

_space_group_name_H-M_alt    "P 1"
_space_group_IT_number       1

loop_
  _space_group_symop_operation_xyz
  'x, y, z'

loop_
  _atom_site_type_symbol
  _atom_site_label
  _atom_site_symmetry_multiplicity
  _atom_site_fract_x
  _atom_site_fract_y
  _atom_site_fract_z
  _atom_site_occupancy
  N   N1        1.0  0.782915870879232  0.5558046976628563  0.418323192426743  1.0000
  C   C1        1.0  0.7350157190841096  0.4649038960664138  0.44473066007748074  1.0000
  C   C2        1.0  0.6755457167672553  0.35207390918135895  0.4775091351861629  1.0000
  C   C3        1.0  0.6961932251717858  0.21034050795367354  0.5185960521391944  1.0000
  C   C4        1.0  0.6199402760172161  0.14165166265447393  0.5385911183298839  1.0000
  C   C5        1.0  0.557430834796957  0.24655099351396514  0.5082279108078294  1.0000
  C   C6        1.0  0.46447496395358917  0.22715758347010762  0.5139434472122666  1.0000
  C   C7        1.0  0.4099030261326988  0.34607255326205255  0.4793397911561237  1.0000
  C   C8        1.0  0.3218073565863797  0.3301704900931275  0.4840343410207537  1.0000
  C   C9        1.0  0.2665148310238837  0.45254527416802404  0.4484147216430203  1.0000
  N   N2        1.0  0.22207263984879802  0.550918799821339  0.41977971428851313  1.0000
  C   C10       1.0  0.28760357642919865  0.19517648821178946  0.5233863046490632  1.0000
  C   C11       1.0  0.34124288981855344  0.07650741322733157  0.5579232541824446  1.0000
  C   C12       1.0  0.42915593630488746  0.09197260911342697  0.5533562595668777  1.0000
  O   O1        1.0  0.5930251567610797  0.3708694089726172  0.47213540170989865  1.0000
  H   H1        1.0  0.7589855783145192  0.16254243670062407  0.5323956008454609  1.0000
  H   H2        1.0  0.6119930493400365  0.028708161681020528  0.57134910096172  1.0000
  H   H3        1.0  0.43577785061610047  0.4511217782099819  0.4487117456886416  1.0000
  H   H4        1.0  0.21958113261936524  0.18170824688902965  0.5273599887568863  1.0000
  H   H5        1.0  0.31463275627482934  0.9721763633289657  0.5883423805478354  1.0000
  H   H6        1.0  0.46889597481380985  0.9979784231347821  0.5807211116556394  1.0000
  C   C13       1.0  0.004981046404077372  0.1298592940790575  0.41758716834979914  1.0000
  C   C14       1.0  0.9847275709677759  0.21223871576391184  0.2887861328188388  1.0000
  C   C15       1.0  0.9572856306741501  0.14675939038116792  0.16561571459029478  1.0000
  C   C16       1.0  0.9499387787519078  0.995904955540509  0.17078295994486226  1.0000
  C   C17       1.0  0.9710689567942828  0.9122967994993528  0.29681452263363073  1.0000
  C   C18       1.0  1.5640678298733945e-05  0.9768531419419644  0.4205281761278148  1.0000
  O   O2        1.0  0.9375610650574789  0.2353365215519403  0.04105371070019914  1.0000
  C   C19       1.0  0.9087996031096232  0.18358960290655313  0.9083226959805457  1.0000
  H   H7        1.0  0.013165743746836656  0.20950739841335797  0.7722921258077264  1.0000
  H   H8        1.0  0.9882910261950951  0.3290378478571587  0.28452593707399676  1.0000
  H   H9        1.0  0.9286860039267557  0.94190166931064  0.0774985817982008  1.0000
  H   H10       1.0  0.966663928430021  0.7958732563569367  0.2963199939604275  1.0000
  H   H11       1.0  0.009075353688903887  0.6798704771028494  0.6584487637301815  1.0000
  H   H12       1.0  0.848051958453945  0.1262844933741043  0.9247317311737624  1.0000
  H   H13       1.0  0.9572925918060378  0.11006958987095361  0.8652666418740327  1.0000
  H   H14       1.0  0.8982055219099964  0.2767066248404424  0.8286042018328166  1.0000
  C   C20       1.0  0.0009671076700710213  0.5497281733933013  0.9958086283241809  1.0000
  C   C21       1.0  0.934264531440823  0.6207370391867488  0.06364764183985616  1.0000
  C   C22       1.0  0.8731816150365989  0.7012674095935951  0.9824391201586398  1.0000
  C   C23       1.0  0.8776673707579047  0.7124736176252824  0.8319115058996287  1.0000
  C   C24       1.0  0.942669247038167  0.6407088765347342  0.7623557815173809  1.0000
  C   C25       1.0  0.00402958096269046  0.5569842198229611  0.8423066675690158  1.0000
  C   C26       1.0  0.8148517978991525  0.7963923440408349  0.7483963839693444  1.0000
  C   C27       1.0  0.7622550504457252  0.8666627869771828  0.6784372337791935  1.0000
  C   C28       1.0  0.6984383508764188  0.9519240818697348  0.5935421590510117  1.0000
  H   H15       1.0  0.19833670242760482  0.4311839809385134  0.109014788465986  1.0000
  H   H16       1.0  0.9304809054961459  0.6167816935944674  0.18041267233574354  1.0000
  H   H17       1.0  0.8228578811673372  0.7560289227161361  0.03727451634796819  1.0000
  H   H18       1.0  0.9441951803679242  0.6474729572537286  0.6452382256413935  1.0000
  H   H19       1.0  0.1357567593827187  0.4720073928790349  0.5688695485190136  1.0000
  H   H20       1.0  0.7156337060385414  0.9558761044760042  0.47761466945178777  1.0000
  H   H21       1.0  0.6356274174418157  0.9012710100547521  0.6081808034807907  1.0000
  H   H22       1.0  0.6956409635061402  0.06330633523784135  0.6304264408565299  1.0000
  Zn  Zn1       1.0  0.9096470771208134  0.5543909521453887  0.4187518161609134  1.0000
  Zn  Zn2       1.0  0.09534151674341973  0.5523208758366018  0.41936283183680634  1.0000
  C   C29       1.0  0.0034825109780483032  0.5498674627152755  0.6822804924075407  1.0000
  C   C30       1.0  0.0015081005080099796  0.5568461635280701  0.15583431004501902  1.0000
  C   C31       1.0  0.0009290825175412021  0.8167040919908997  0.4142287603935153  1.0000
  C   C32       1.0  0.004061476039615153  0.29000780293304085  0.4238861126762634  1.0000
  O   O3        1.0  0.07215977161271692  0.5584431511787877  0.20977224610131473  1.0000
  O   O4        1.0  0.07376862774703685  0.54669824352599  0.62880588443356  1.0000
  O   O5        1.0  0.0717057574243396  0.7621722197123175  0.4123522164027349  1.0000
  O   O6        1.0  0.0742225781190291  0.34296918508909435  0.42622580589157133  1.0000
  O   O7        1.0  0.9307659523767688  0.7637426436008159  0.41188884189006325  1.0000
  O   O8        1.0  0.9328288122599331  0.5482703994418139  0.6283424390875842  1.0000
  O   O9        1.0  0.9312199502073654  0.5600152419842062  0.2093070677147122  1.0000
  O   O10       1.0  0.9332827571616271  0.34454126650579897  0.42576073552945215  1.0000
