data_image0
_chemical_formula_structural       NC9NC3OH6C7F3H5C7F3H5Zn2C4O8
_chemical_formula_sum              "N2 C30 O9 H16 F6 Zn2"
_cell_length_a       15.78231758774541
_cell_length_b       9.27228830945605
_cell_length_c       9.272291681409872
_cell_angle_alpha    85.76598936101391
_cell_angle_beta     90.49794672891421
_cell_angle_gamma    89.05832516092083

_space_group_name_H-M_alt    "P 1"
_space_group_IT_number       1

loop_
  _space_group_symop_operation_xyz
  'x, y, z'

loop_
  _atom_site_type_symbol
  _atom_site_label
  _atom_site_symmetry_multiplicity
  _atom_site_fract_x
  _atom_site_fract_y
  _atom_site_fract_z
  _atom_site_occupancy
  N   N1        1.0  0.7819773668887641  0.5568165509588789  0.40426293773342503  1.0000
  C   C1        1.0  0.7340960755761714  0.46584819753821094  0.43147163318793935  1.0000
  C   C2        1.0  0.6746494839143492  0.35293436247161236  0.4652446268474535  1.0000
  C   C3        1.0  0.6953263518795862  0.2110956225675995  0.50758079889264  1.0000
  C   C4        1.0  0.6190876765755448  0.14235573714573824  0.5281813222234646  1.0000
  C   C5        1.0  0.5565565308696419  0.2473330368408715  0.496893533599265  1.0000
  C   C6        1.0  0.4636047283167127  0.22792522524300862  0.5027800345758231  1.0000
  C   C7        1.0  0.4090080859969586  0.3469285578591703  0.46712820740686567  1.0000
  C   C8        1.0  0.320915756679133  0.33101468682964796  0.4719629459678809  1.0000
  C   C9        1.0  0.26559780284348816  0.4534804034605542  0.4352646562691449  1.0000
  N   N2        1.0  0.22113516983930484  0.5519270269648966  0.40576253681202146  1.0000
  C   C10       1.0  0.2867400592465484  0.19592038305099835  0.5125048299848673  1.0000
  C   C11       1.0  0.34040402869230346  0.07716312858008356  0.5480877846900067  1.0000
  C   C12       1.0  0.42831382594285566  0.09263980775613101  0.5433844522585205  1.0000
  O   O1        1.0  0.5921250712935145  0.37174384096322477  0.45970525058698475  1.0000
  H   H1        1.0  0.7581285753863116  0.16326201974684862  0.5218016281233717  1.0000
  H   H2        1.0  0.6111638549644716  0.029328296803208476  0.5619348075350197  1.0000
  H   H3        1.0  0.43486105428745503  0.45205583476370514  0.43557419166956146  1.0000
  H   H4        1.0  0.21872044315379863  0.18244214076722387  0.5165972460862192  1.0000
  H   H5        1.0  0.3138156021772248  0.9727545603919975  0.5794265510211005  1.0000
  H   H6        1.0  0.4680733987709825  0.9985757786452508  0.5715778162333238  1.0000
  C   C13       1.0  0.004063078231155037  0.13053870881179286  0.40724310377535367  1.0000
  C   C14       1.0  0.04385100867627001  0.2111089967133437  0.2935125878634548  1.0000
  C   C15       1.0  0.0752496141455008  0.14410277947802141  0.1747271348888959  1.0000
  C   C16       1.0  0.0665326572124052  0.9949145029335024  0.1654823903236189  1.0000
  C   C17       1.0  0.029843440928826848  0.9126433199301682  0.2810585144046436  1.0000
  C   C18       1.0  0.9990576824743332  0.9781938204961325  0.40279492875450407  1.0000
  C   C19       1.0  0.10263278413371624  0.921863229896411  0.03897574896762235  1.0000
  F   F1        1.0  0.10138500541518414  0.015396425023435079  0.9154747926072098  1.0000
  F   F2        1.0  0.055856130717375496  0.8017904642107593  0.011335225124869064  1.0000
  F   F3        1.0  0.18539502049243084  0.8786576379001931  0.07047747899972778  1.0000
  H   H7        1.0  0.8626773267011899  0.2169586240281589  0.6660694094628661  1.0000
  H   H8        1.0  0.049202275892014535  0.3273267391871  0.29502258754527055  1.0000
  H   H9        1.0  0.10576934448317288  0.20949167418853865  0.0892842372694107  1.0000
  H   H10       1.0  0.0271222972875389  0.7962064368543665  0.2778075716192028  1.0000
  H   H11       1.0  0.9610463934197765  0.851984833266661  0.7518005907933807  1.0000
  C   C20       1.0  0.9997986276625235  0.5506813075227994  0.9816716455548518  1.0000
  C   C21       1.0  0.057325416043332966  0.4592127576713072  0.06256229024257731  1.0000
  C   C22       1.0  0.11938045840675682  0.3806257875385253  0.994384396120453  1.0000
  C   C23       1.0  0.12637614791453822  0.39313006634981873  0.8434501668132812  1.0000
  C   C24       1.0  0.06718914430903955  0.4798358990988827  0.7614086508973532  1.0000
  C   C25       1.0  0.0033220977921148975  0.5580512419940464  0.8283663238143766  1.0000
  C   C26       1.0  0.19194850696971177  0.3049961720499894  0.7695456767938413  1.0000
  F   F4        1.0  0.2630451414340078  0.2798364395426578  0.8568349848513246  1.0000
  F   F5        1.0  0.21688497484704583  0.3769415347799825  0.6411808292057035  1.0000
  F   F6        1.0  0.15781256447969683  0.17386386296842193  0.7401575814287522  1.0000
  H   H12       1.0  0.8787467959278192  0.8436608135453516  0.05982432766211132  1.0000
  H   H13       1.0  0.05542051969711004  0.4506176897099974  0.17964751759369513  1.0000
  H   H14       1.0  0.1624769755863431  0.31085996728267307  0.06010711379157563  1.0000
  H   H15       1.0  0.06958238266736005  0.4836588094303571  0.644408905033909  1.0000
  H   H16       1.0  0.8104694600681412  0.6984517982831129  0.7136427077083787  1.0000
  Zn  Zn1       1.0  0.9087088762259803  0.5554017571227943  0.4047040281606378  1.0000
  Zn  Zn2       1.0  0.09440375061101314  0.5533301436936267  0.40533329309037236  1.0000
  C   C27       1.0  0.0026881582203235332  0.5509084050907052  0.6683530970540197  1.0000
  C   C28       1.0  0.0004264862342830966  0.5578252954098997  0.14168436300925102  1.0000
  C   C29       1.0  0.9999755227483381  0.8179189893462071  0.39789087513376886  1.0000
  C   C30       1.0  0.0031390689009540562  0.2908129784931499  0.4121466706743404  1.0000
  O   O2        1.0  0.07110747556021901  0.5594304199027258  0.19562492852495117  1.0000
  O   O3        1.0  0.07294528656817345  0.5477298815153622  0.6148897197770808  1.0000
  O   O4        1.0  0.0707538553841971  0.763344328757251  0.39648955091694194  1.0000
  O   O5        1.0  0.07329884286832145  0.3438159827515215  0.4140249890231886  1.0000
  O   O6        1.0  0.9298137206000838  0.7649159187733445  0.39601233200549313  1.0000
  O   O7        1.0  0.9320051412207861  0.5493032049011497  0.6144124148984653  1.0000
  O   O8        1.0  0.9301673233532597  0.5610036779059022  0.19514589064161902  1.0000
  O   O9        1.0  0.9323586911686478  0.34538923137245936  0.41354605927942956  1.0000
