data_image0
_chemical_formula_structural       NC9NC3OH6C6SCH8C6H6Zn2C4O8
_chemical_formula_sum              "N2 C29 O9 H20 S1 Zn2"
_cell_length_a       15.78231758774541
_cell_length_b       10.302809429070853
_cell_length_c       10.681121600428288
_cell_angle_alpha    85.56070011221655
_cell_angle_beta     90.08384876913414
_cell_angle_gamma    89.63144148246117

_space_group_name_H-M_alt    "P 1"
_space_group_IT_number       1

loop_
  _space_group_symop_operation_xyz
  'x, y, z'

loop_
  _atom_site_type_symbol
  _atom_site_label
  _atom_site_symmetry_multiplicity
  _atom_site_fract_x
  _atom_site_fract_y
  _atom_site_fract_z
  _atom_site_occupancy
  N   N1        1.0  0.7978582798204431  0.412843370776534  0.6210054007650547  1.0000
  C   C1        1.0  0.7493272118187883  0.3308047085743264  0.6442247983328999  1.0000
  C   C2        1.0  0.6890740877248099  0.22897478748213196  0.6730460525468791  1.0000
  C   C3        1.0  0.7087381878227406  0.10105999695911128  0.7091736195000309  1.0000
  C   C4        1.0  0.6320083411708254  0.03906748213310385  0.7267543405090802  1.0000
  C   C5        1.0  0.5702265689002604  0.13373906683975312  0.7000556117283003  1.0000
  C   C6        1.0  0.4771357947324167  0.11623573775621154  0.7050802865337507  1.0000
  C   C7        1.0  0.423389423504218  0.2235578452959721  0.6746547948700139  1.0000
  C   C8        1.0  0.3351831077146291  0.20920553508006257  0.6787818126317049  1.0000
  C   C9        1.0  0.28074020214392265  0.3196502350113455  0.6474631236767765  1.0000
  N   N2        1.0  0.23698100099604852  0.40843352445194814  0.6222856968730892  1.0000
  C   C10       1.0  0.3000418778230403  0.08737138342335915  0.7133815654354745  1.0000
  C   C11       1.0  0.35285731396094416  0.9802711613245053  0.743748354690267  1.0000
  C   C12       1.0  0.4408779721676381  0.9942291905568271  0.7397334862696352  1.0000
  O   O1        1.0  0.6066836644719464  0.24593720077745562  0.6683201702821504  1.0000
  H   H1        1.0  0.771199104575376  0.05792254071244729  0.7213080980406279  1.0000
  H   H2        1.0  0.6232774009862214  0.9371355263353692  0.7555581315301485  1.0000
  H   H3        1.0  0.44999376906248156  0.3183664182533732  0.6477254992322168  1.0000
  H   H4        1.0  0.231925730917574  0.07521572250907349  0.7168748882611642  1.0000
  H   H5        1.0  0.325522645026222  0.8861107489752745  0.7704939561500741  1.0000
  H   H6        1.0  0.4799654087484533  0.9093982722983835  0.7637940770658944  1.0000
  C   C13       1.0  0.01742370220578815  0.029384996862387602  0.6216509931193883  1.0000
  C   C14       1.0  0.06630371720950112  0.0365581784455109  0.5116033373369218  1.0000
  C   C15       1.0  0.09039228199504623  0.9231506280920144  0.4567045895448367  1.0000
  C   C16       1.0  0.0663036103702439  0.801407021597829  0.5116032697244526  1.0000
  C   C17       1.0  0.01742366843305687  0.791881858570627  0.6216509864467852  1.0000
  C   C18       1.0  0.9932005942659696  0.9065018271275717  0.6761132308992908  1.0000
  S   S1        1.0  0.15300004112211374  0.9338044698574168  0.31624921995957744  1.0000
  C   C19       1.0  0.06117909097898244  0.9430245209789738  0.21263401600683451  1.0000
  H   H7        1.0  0.998975322860511  0.3539973697004277  0.6630956224376616  1.0000
  H   H8        1.0  0.08571833359367886  0.12997419204137106  0.46789070277990175  1.0000
  H   H9        1.0  0.08571814661183486  0.7146238004310969  0.46789060464849497  1.0000
  H   H10       1.0  0.9554834387245104  0.9000629433904889  0.760984979889352  1.0000
  H   H11       1.0  0.9989739388104112  0.4609816156211102  0.6630942413373282  1.0000
  H   H12       1.0  0.02229539086739507  0.853959840124242  0.22921945790810883  1.0000
  H   H13       1.0  0.022296184384785978  0.030194793821138433  0.22921900499758907  1.0000
  H   H14       1.0  0.08305766814856397  0.9507462428805677  0.11371487063666286  1.0000
  C   C20       1.0  0.017423701317463403  0.410633403436621  0.25390573925347204  1.0000
  C   C21       1.0  0.9567759710275858  0.33903634936679805  0.1923064311297158  1.0000
  C   C22       1.0  0.9567759181251294  0.339036433145532  0.061424291022576405  1.0000
  C   C23       1.0  0.017423634706875468  0.41063346774755827  0.9893961747356057  1.0000
  C   C24       1.0  0.07802130811309937  0.48217118727334274  0.050994756570506894  1.0000
  C   C25       1.0  0.078021297272306  0.48217116725041764  0.18188705520194692  1.0000
  H   H15       1.0  0.07875463330713095  0.48303770365951215  0.5473422940466979  1.0000
  H   H16       1.0  0.9092374169314815  0.2829151945260322  0.24520466597157742  1.0000
  H   H17       1.0  0.9092373992352458  0.28291525581644117  0.016700636694446658  1.0000
  H   H18       1.0  0.1255660701435808  0.5382997380040664  0.9981408751957526  1.0000
  H   H19       1.0  0.12556602745224388  0.5382996929204633  0.2265652425556921  1.0000
  H   H20       1.0  0.07875489775898026  0.48303724867431796  0.6854132691043193  1.0000
  Zn  Zn1       1.0  0.9245796079335702  0.4115673164593381  0.6213820923426778  1.0000
  Zn  Zn2       1.0  0.11025964439031011  0.409698982509346  0.6219192423672844  1.0000
  C   C26       1.0  0.017421779730189213  0.40546133908443216  0.8503727445721481  1.0000
  C   C27       1.0  0.017419500213825545  0.4158065776054223  0.39292871891631553  1.0000
  C   C28       1.0  0.017419309339513633  0.6477537534444315  0.6166606397007572  1.0000
  C   C29       1.0  0.01742190724495951  0.17351260405292934  0.6266408903697316  1.0000
  O   O2        1.0  0.08788269644104818  0.41682805509138476  0.4397899465171127  1.0000
  O   O3        1.0  0.08788543483011413  0.40302085993492853  0.8039188409201996  1.0000
  O   O4        1.0  0.08788249006173943  0.5986750582944556  0.6151946599365663  1.0000
  O   O5        1.0  0.08788557784940831  0.22117386665679772  0.628514033421312  1.0000
  O   O6        1.0  0.9469536111109887  0.6000924329508701  0.6147873010987599  1.0000
  O   O7        1.0  0.9469565558754213  0.40443979442282085  0.803511415310479  1.0000
  O   O8        1.0  0.9469538175427884  0.4182469443363792  0.43938101528497375  1.0000
  O   O9        1.0  0.9469566989476793  0.22259274661583595  0.6281051960787176  1.0000
