data_image0
_chemical_formula_structural       NC9NC3OH6C7OH6C6NCOH7Zn2C4O8
_chemical_formula_sum              "N3 C30 O11 H19 Zn2"
_cell_length_a       15.78231758774541
_cell_length_b       9.274078303013075
_cell_length_c       10.29962270195845
_cell_angle_alpha    85.7553890900743
_cell_angle_beta     90.10253899755935
_cell_angle_gamma    89.04960325712263

_space_group_name_H-M_alt    "P 1"
_space_group_IT_number       1

loop_
  _space_group_symop_operation_xyz
  'x, y, z'

loop_
  _atom_site_type_symbol
  _atom_site_label
  _atom_site_symmetry_multiplicity
  _atom_site_fract_x
  _atom_site_fract_y
  _atom_site_fract_z
  _atom_site_occupancy
  N   N1        1.0  0.7882003204962144  0.5688617327087082  0.5742699299498475  1.0000
  C   C1        1.0  0.7402177155447993  0.47774206038379163  0.5980986282111878  1.0000
  C   C2        1.0  0.6806453674854885  0.3646403985186073  0.6276761851952279  1.0000
  C   C3        1.0  0.7011646153690753  0.2225664560905216  0.664750955941533  1.0000
  C   C4        1.0  0.6248492224119928  0.15371188928135737  0.6827933899339513  1.0000
  C   C5        1.0  0.5624345515485433  0.2588628820164629  0.6553950953515892  1.0000
  C   C6        1.0  0.46946080986274413  0.23942210415951926  0.6605523845845174  1.0000
  C   C7        1.0  0.4149969342125041  0.358623873764671  0.629327956935176  1.0000
  C   C8        1.0  0.3268865837510247  0.3426829046262745  0.6335639709341365  1.0000
  C   C9        1.0  0.2717052958690686  0.4653529085331709  0.6014228061976916  1.0000
  N   N2        1.0  0.22735253033776154  0.563963764619916  0.57558416902339  1.0000
  C   C10       1.0  0.2925598919395043  0.20736275151542016  0.6690729175889945  1.0000
  C   C11       1.0  0.3460913499910951  0.08840742981428895  0.7002371465690771  1.0000
  C   C12       1.0  0.4340186789249891  0.10391047449439195  0.6961162308150342  1.0000
  O   O1        1.0  0.5981415596225232  0.38348044096086786  0.6228270989001463  1.0000
  H   H1        1.0  0.7639139079910141  0.17465400724607894  0.6772030506090279  1.0000
  H   H2        1.0  0.6167997303491026  0.04049688070125712  0.712352526172656  1.0000
  H   H3        1.0  0.44096742372686093  0.4639269453885817  0.601690978740546  1.0000
  H   H4        1.0  0.22452502223574683  0.19386157827340278  0.6726584788024521  1.0000
  H   H5        1.0  0.3193862038200588  0.9838242647929646  0.7276856076198377  1.0000
  H   H6        1.0  0.47367325701267904  0.009689485496485961  0.7208087444949658  1.0000
  C   C13       1.0  0.010305908756099269  0.14291667336349878  0.5737700890210071  1.0000
  C   C14       1.0  0.9938969555492411  0.226520766449132  0.45649049519346163  1.0000
  C   C15       1.0  0.9701674992091728  0.16164162911347213  0.3436248527623611  1.0000
  C   C16       1.0  0.9626218140120839  0.01108374904665177  0.3479661703458423  1.0000
  C   C17       1.0  0.9799838236224624  0.9264095366081567  0.4628317041421075  1.0000
  C   C18       1.0  0.005255110499946314  0.9898976395442096  0.5760952523598046  1.0000
  C   C19       1.0  0.9526849140652027  0.2527097611800333  0.22271020794785157  1.0000
  O   O2        1.0  0.9308851842667794  0.1976179599204786  0.11981951312813544  1.0000
  H   H7        1.0  0.007766420178510813  0.21969067131632936  0.8935039792400772  1.0000
  H   H8        1.0  0.9976866086651895  0.34334307994951674  0.45370087038872065  1.0000
  H   H9        1.0  0.9440679334226367  0.9584075262593597  0.26217765163768325  1.0000
  H   H10       1.0  0.9755667088453123  0.8100213984432246  0.4621237936087019  1.0000
  H   H11       1.0  0.007254693186735661  0.691064176558025  0.7908722374739561  1.0000
  H   H12       1.0  0.9585343242768616  0.3689586025680056  0.22136311279371412  1.0000
  C   C20       1.0  0.007700706262603552  0.566267479686718  0.1935752408658249  1.0000
  C   C21       1.0  0.9188444094195797  0.5783830658597118  0.19124652789150698  1.0000
  C   C22       1.0  0.8742204085368654  0.5868465451805136  0.0731177335843669  1.0000
  C   C23       1.0  0.9190299315587855  0.5786900778408872  0.9560757446231096  1.0000
  C   C24       1.0  0.007860296793484212  0.5665468500293538  0.9562900212030514  1.0000
  C   C25       1.0  0.051710821941516105  0.5609829540156599  0.07554380510069203  1.0000
  N   N3        1.0  0.7831971535171671  0.597006509438045  0.07475323893580388  1.0000
  C   C26       1.0  0.7330154447768825  0.6762744195468249  0.9767470295622767  1.0000
  O   O3        1.0  0.7666531978648065  0.7592559339184557  0.8899680781381853  1.0000
  H   H13       1.0  0.17525492996339898  0.5418707780865719  0.40532248037849694  1.0000
  H   H14       1.0  0.8838339409869551  0.5825259616853891  0.2813077849152119  1.0000
  H   H15       1.0  0.8846393766836846  0.578801432822222  0.8651198475184629  1.0000
  H   H16       1.0  0.12021019894647988  0.551661818923805  0.07646163146634555  1.0000
  H   H17       1.0  0.04188559072549203  0.5596995035990444  0.6290712428489349  1.0000
  H   H18       1.0  0.751288748825876  0.5525256255469475  0.15663116984699776  1.0000
  H   H19       1.0  0.6647314448601027  0.6680421436473578  0.9794126626194513  1.0000
  Zn  Zn1       1.0  0.9149301829411274  0.5674444354948327  0.5746566736228915  1.0000
  Zn  Zn2       1.0  0.10062271181162541  0.565369295403509  0.5752080090374432  1.0000
  C   C27       1.0  0.00786250034226943  0.5607488895314532  0.8121048540058322  1.0000
  C   C28       1.0  0.007692411342792527  0.5720666383793891  0.33775996713290324  1.0000
  C   C29       1.0  0.006204362201718716  0.8297983780890243  0.5704806895610335  1.0000
  C   C30       1.0  0.009350496466333569  0.3030154178971296  0.5793841958696269  1.0000
  O   O4        1.0  0.07815901197229391  0.5732190925669198  0.3863588900567321  1.0000
  O   O5        1.0  0.07833223890237262  0.5580203639476444  0.7639240050832332  1.0000
  O   O6        1.0  0.07699232170590231  0.7752812396636266  0.5688107840589351  1.0000
  O   O7        1.0  0.07949886572258835  0.35595822783982345  0.5814720135494866  1.0000
  O   O8        1.0  0.9360539656624068  0.7768555037682292  0.5683926689158774  1.0000
  O   O9        1.0  0.9373938725081298  0.5595963606866465  0.76350582545328  1.0000
  O   O10       1.0  0.9372206456073957  0.5747950384783127  0.38593914893539494  1.0000
  O   O11       1.0  0.9385604994361085  0.3575341634720419  0.5810523697647234  1.0000
