data_image0
_chemical_formula_structural       NC9NC3OH6C9H8C6H6Zn2C4O8
_chemical_formula_sum              "N2 C31 O9 H20 Zn2"
_cell_length_a       15.78231758774541
_cell_length_b       9.275152443626249
_cell_length_c       10.681121600428288
_cell_angle_alpha    85.36323627709002
_cell_angle_beta     90.08384876913414
_cell_angle_gamma    90.20707041648352

_space_group_name_H-M_alt    "P 1"
_space_group_IT_number       1

loop_
  _space_group_symop_operation_xyz
  'x, y, z'

loop_
  _atom_site_type_symbol
  _atom_site_label
  _atom_site_symmetry_multiplicity
  _atom_site_fract_x
  _atom_site_fract_y
  _atom_site_fract_z
  _atom_site_occupancy
  N   N1        1.0  0.8071205873791211  0.5697870277391133  0.6163149605054195  1.0000
  C   C1        1.0  0.7580516909551964  0.4786352197171708  0.6398067148341053  1.0000
  C   C2        1.0  0.6971309910581671  0.3654936695123763  0.6689660299905817  1.0000
  C   C3        1.0  0.7159565083693326  0.22336964998384268  0.7055182559651667  1.0000
  C   C4        1.0  0.63882025167188  0.15449078654882187  0.7233047833596584  1.0000
  C   C5        1.0  0.577659126638481  0.2596788269515744  0.6962917583012185  1.0000
  C   C6        1.0  0.4844536042822492  0.24023116593980154  0.7013745416848098  1.0000
  C   C7        1.0  0.4314108144902097  0.35947499415901984  0.670592755795991  1.0000
  C   C8        1.0  0.34311040793716674  0.34352837837623906  0.6747674211986359  1.0000
  C   C9        1.0  0.2893915548694827  0.4662416676344643  0.6430820714533207  1.0000
  N   N2        1.0  0.24621439851856164  0.5648873200306408  0.6176098966798387  1.0000
  C   C10       1.0  0.30717045866370135  0.20816045666445304  0.7097716461624124  1.0000
  C   C11       1.0  0.35928376800029027  0.08916316170857064  0.7404939930139913  1.0000
  C   C12       1.0  0.44739593214623896  0.10467169837648127  0.7364327859095314  1.0000
  O   O1        1.0  0.6148517698621827  0.3843403278900235  0.6641838349116613  1.0000
  H   H1        1.0  0.7781346249225121  0.17544033196718356  0.7177959447622313  1.0000
  H   H2        1.0  0.6294210667658976  0.04123586726119144  0.7524469740640225  1.0000
  H   H3        1.0  0.45863670535214557  0.46481523995370044  0.6433487090989067  1.0000
  H   H4        1.0  0.2389746217711523  0.19465450178542576  0.7133053240639116  1.0000
  H   H5        1.0  0.3313318029681591  0.9845430765032679  0.7675521937314949  1.0000
  H   H6        1.0  0.48592723485429307  0.010417460583575622  0.7607750033620009  1.0000
  C   C13       1.0  0.024172136345369077  0.14373273644317464  0.6182335804522687  1.0000
  C   C14       1.0  0.9936076268216503  0.2268131859290794  0.5117529607251157  1.0000
  C   C15       1.0  0.9709188472996703  0.16162500709758887  0.4033036718441303  1.0000
  C   C16       1.0  0.9784383209310623  0.01219916057533843  0.3991880129668943  1.0000
  C   C17       1.0  0.007346011878652803  0.9274490520135888  0.5047646092033844  1.0000
  C   C18       1.0  0.029170874868864827  0.9909304758323215  0.6157021151583832  1.0000
  C   C19       1.0  0.9554833887520644  0.9453057882164146  0.2868835484239798  1.0000
  C   C20       1.0  0.9362639970842849  0.8892648884760849  0.19284617266571114  1.0000
  C   C21       1.0  0.9129450642925211  0.8212571648701603  0.0787483107424709  1.0000
  H   H7        1.0  0.14591717767936152  0.2240256963779479  0.868694942023192  1.0000
  H   H8        1.0  0.9891444838566508  0.3433804744337954  0.5113458790999295  1.0000
  H   H9        1.0  0.9482659299493484  0.22811754063928147  0.32213046390553446  1.0000
  H   H10       1.0  0.01091329202685154  0.8110992158448205  0.5012816280831243  1.0000
  H   H11       1.0  0.10842209166906636  0.6947467549425033  0.7869974271762514  1.0000
  H   H12       1.0  0.9284340149762819  0.7043625012213336  0.09049332529069254  1.0000
  H   H13       1.0  0.84398498057537  0.834609228755789  0.061400815922135754  1.0000
  H   H14       1.0  0.9487257967405244  0.8732064279307251  0.9977931561322975  1.0000
  C   C22       1.0  0.026671520789478986  0.567331569382101  0.24922263577298587  1.0000
  C   C23       1.0  0.9655544150905454  0.4877812603896967  0.18786101974718328  1.0000
  C   C24       1.0  0.9655543627373251  0.4877813534748696  0.056978879361910595  1.0000
  C   C25       1.0  0.026671454600500244  0.5673316408369262  0.9847130710416154  1.0000
  C   C26       1.0  0.08773811443083868  0.6468160241935133  0.04607415776086188  1.0000
  C   C27       1.0  0.08773810345877875  0.6468160019463707  0.1769664564587745  1.0000
  H   H15       1.0  0.08847712032624067  0.6477787962958339  0.5424188185251484  1.0000
  H   H16       1.0  0.9176479423649347  0.4254259684493371  0.24094556888936114  1.0000
  H   H17       1.0  0.9176479250705062  0.4254260365481024  0.012441539408754698  1.0000
  H   H18       1.0  0.13565084357674384  0.7091795335855411  0.9930339375324824  1.0000
  H   H19       1.0  0.13565080058984846  0.7091794834938918  0.22145830504209263  1.0000
  H   H20       1.0  0.08847738179530196  0.6477782907692691  0.6804897950932562  1.0000
  Zn  Zn1       1.0  0.933833549945301  0.5683692247786027  0.6166958884029816  1.0000
  Zn  Zn2       1.0  0.11950133799289353  0.5662933496612006  0.617239241032179  1.0000
  C   C28       1.0  0.026635692223034413  0.5615849737617848  0.8457068116141448  1.0000
  C   C29       1.0  0.026701233940737756  0.5730793981013993  0.38822844122891187  1.0000
  C   C30       1.0  0.028221640554034755  0.830792089602848  0.611190330179558  1.0000
  C   C31       1.0  0.02511521202845368  0.3038705498672054  0.622744994421822  1.0000
  O   O2        1.0  0.09717112676210116  0.5742143449325616  0.43508627766886043  1.0000
  O   O3        1.0  0.09708334804877161  0.5588733975250975  0.7992610100079662  1.0000
  O   O4        1.0  0.09836307154910728  0.7762615587751811  0.6098872847450914  1.0000
  O   O5        1.0  0.09589133996681709  0.3568261947099154  0.6244599088193519  1.0000
  O   O6        1.0  0.9574434846120824  0.7778363804398525  0.6094752204237976  1.0000
  O   O7        1.0  0.9561637713337359  0.5604499522928639  0.798848873736338  1.0000
  O   O8        1.0  0.9562515498068956  0.5757908494316886  0.43467263592501393  1.0000
  O   O9        1.0  0.9549717629472654  0.3584026888915697  0.6240463609958782  1.0000
