data_image0
_chemical_formula_structural       NC9NC3OH6C6BrH5C7NH5Zn2C4O8
_chemical_formula_sum              "N3 C29 O9 H16 Br1 Zn2"
_cell_length_a       15.78231758774541
_cell_length_b       10.302969083221269
_cell_length_c       10.302823150593486
_cell_angle_alpha    85.56069318990711
_cell_angle_beta     90.08385050025007
_cell_angle_gamma    89.63144763104107

_space_group_name_H-M_alt    "P 1"
_space_group_IT_number       1

loop_
  _space_group_symop_operation_xyz
  'x, y, z'

loop_
  _atom_site_type_symbol
  _atom_site_label
  _atom_site_symmetry_multiplicity
  _atom_site_fract_x
  _atom_site_fract_y
  _atom_site_fract_z
  _atom_site_occupancy
  N   N1        1.0  0.7978583499902997  0.41282160996859996  0.5703715061377586  1.0000
  C   C1        1.0  0.749327276728654  0.3307842167053603  0.5944434748089877  1.0000
  C   C2        1.0  0.6890741461057555  0.22895587067483691  0.6243229894034739  1.0000
  C   C3        1.0  0.7087382380007131  0.10104305869032215  0.6617770903339966  1.0000
  C   C4        1.0  0.6320083873748151  0.039051502734738675  0.6800033412099944  1.0000
  C   C5        1.0  0.5702266211762189  0.1337216230926932  0.6523242870428008  1.0000
  C   C6        1.0  0.47713584588760616  0.11621856473648973  0.6575334581236583  1.0000
  C   C7        1.0  0.4233894815394268  0.2235390122684875  0.625990801606733  1.0000
  C   C8        1.0  0.3351831648309779  0.20918692404185224  0.6302693554242709  1.0000
  C   C9        1.0  0.2807402663403029  0.3196299156673359  0.5978007051504126  1.0000
  N   N2        1.0  0.23698107088383463  0.40841183185059426  0.5716988122245337  1.0000
  C   C10       1.0  0.30004192713031097  0.08735465685268995  0.6661395438217972  1.0000
  C   C11       1.0  0.3528573564025072  0.9802560913291832  0.6976213424910971  1.0000
  C   C12       1.0  0.4408780155027929  0.9942139046707481  0.6934590559201665  1.0000
  O   O1        1.0  0.6066837239420175  0.2459180215957204  0.6194235819286158  1.0000
  H   H1        1.0  0.7711991519859894  0.05790626968245127  0.6743571233258909  1.0000
  H   H2        1.0  0.6232774406537825  0.9371211235812801  0.7098647514020298  1.0000
  H   H3        1.0  0.4499938331744429  0.3183461187764274  0.5980727146365121  1.0000
  H   H4        1.0  0.2319257794465754  0.07519918395197744  0.669761134659465  1.0000
  H   H5        1.0  0.3255226814325847  0.8860971354039653  0.7253489903905304  1.0000
  H   H6        1.0  0.47996544664565  0.9093842985358894  0.7184031047931323  1.0000
  C   C13       1.0  0.017423745540277924  0.02936917741131606  0.571040814858228  1.0000
  C   C14       1.0  0.10527067360616438  0.025573202488188285  0.5931862283030649  1.0000
  C   C15       1.0  0.1488474782189313  0.9067523439591194  0.604171376962013  1.0000
  C   C16       1.0  0.10527074013495774  0.7904908422220593  0.5931859821583878  1.0000
  C   C17       1.0  0.017423758567719938  0.791854194638087  0.5710407288258565  1.0000
  C   C18       1.0  0.9739245052396238  0.9118890832198396  0.5600750198428055  1.0000
  Br  Br1       1.0  0.26833442219678805  0.9032435198866664  0.6342933029997402  1.0000
  H   H7        1.0  0.984359010518381  0.3580996121203217  0.5627049070657768  1.0000
  H   H8        1.0  0.1402408745674557  0.11454559001041309  0.6020020415413823  1.0000
  H   H9        1.0  0.14024097427211557  0.6994646548723708  0.6020014570245455  1.0000
  H   H10       1.0  0.9061735758521068  0.9138785903645317  0.5429957988457328  1.0000
  H   H11       1.0  0.9843587678581589  0.46506562233580473  0.5627068247823328  1.0000
  C   C19       1.0  0.01742376367802767  0.41061171153260134  0.1897926983777416  1.0000
  C   C20       1.0  0.9286320979741429  0.4209132629732215  0.18769485996027369  1.0000
  C   C21       1.0  0.8844574073201207  0.426038275345902  0.06954865782403519  1.0000
  C   C22       1.0  0.9286320814980116  0.4209131783645037  0.9523938660619349  1.0000
  C   C23       1.0  0.017423763172098372  0.4106117047929465  0.9522888649911403  1.0000
  C   C24       1.0  0.06135566862058717  0.40551472365038266  0.07153375952448693  1.0000
  C   C25       1.0  0.7934329625709942  0.43659866509748646  0.06852716157622285  1.0000
  N   N3        1.0  0.7202790502958852  0.4450859267668694  0.06770617767436815  1.0000
  H   H12       1.0  0.051056200586508504  0.40671002212498397  0.5179095423735744  1.0000
  H   H13       1.0  0.8936137953439706  0.4249760624951342  0.2777261376269866  1.0000
  H   H14       1.0  0.8936138289490869  0.42497596656776593  0.8615766012308321  1.0000
  H   H15       1.0  0.1298286028991784  0.3975705603719737  0.07230219396034321  1.0000
  H   H16       1.0  0.05105617219743075  0.406709814002036  0.624926841980185  1.0000
  Zn  Zn1       1.0  0.9245796780219352  0.4115455753874009  0.5707620290955748  1.0000
  Zn  Zn2       1.0  0.11025971435905979  0.40967727033521073  0.5713189022231255  1.0000
  C   C26       1.0  0.017421854165813322  0.4054396709987267  0.8081607483902653  1.0000
  C   C27       1.0  0.017419565835431916  0.41578479241997757  0.3339203164353701  1.0000
  C   C28       1.0  0.017419395866633325  0.6477283532755671  0.5658672072929791  1.0000
  C   C29       1.0  0.017421960774962164  0.17349455097479605  0.5762139265594837  1.0000
  O   O2        1.0  0.08788276311129928  0.41680624965416735  0.3825021921278695  1.0000
  O   O3        1.0  0.08788550812623086  0.4029992340489683  0.760001152788927  1.0000
  O   O4        1.0  0.08788257312191994  0.5986504187038755  0.5643474012368541  1.0000
  O   O5        1.0  0.08788563475559519  0.22115507492405562  0.578155846146104  1.0000
  O   O6        1.0  0.9469536942619163  0.6000677714375304  0.563925084975734  1.0000
  O   O7        1.0  0.9469566292623933  0.40441814658993835  0.7595787673041177  1.0000
  O   O8        1.0  0.9469538843038605  0.41822511695308284  0.38207824573727756  1.0000
  O   O9        1.0  0.9469567559446881  0.2225739329371499  0.5777319970924883  1.0000
