data_image0
_chemical_formula_structural       NC9NC3OH6C6OCH8C6FH5Zn2C4O8
_chemical_formula_sum              "N2 C29 O10 H19 F1 Zn2"
_cell_length_a       15.78231758774541
_cell_length_b       9.273888216677433
_cell_length_c       9.275646106892307
_cell_angle_alpha    85.15247369162395
_cell_angle_beta     90.10253560025426
_cell_angle_gamma    89.05820199757643

_space_group_name_H-M_alt    "P 1"
_space_group_IT_number       1

loop_
  _space_group_symop_operation_xyz
  'x, y, z'

loop_
  _atom_site_type_symbol
  _atom_site_label
  _atom_site_symmetry_multiplicity
  _atom_site_fract_x
  _atom_site_fract_y
  _atom_site_fract_z
  _atom_site_occupancy
  N   N1        1.0  0.7881704911772178  0.5862339143322248  0.41617055895181543  1.0000
  C   C1        1.0  0.7401826089337057  0.4948250705422155  0.44261396668751907  1.0000
  C   C2        1.0  0.680603710513793  0.3813644723234173  0.4754370527068741  1.0000
  C   C3        1.0  0.7011147206484055  0.23884061713430715  0.5165798882093786  1.0000
  C   C4        1.0  0.6247953442185782  0.16976709514356014  0.5366021673228405  1.0000
  C   C5        1.0  0.562386775139703  0.2752505710167743  0.5061976360255334  1.0000
  C   C6        1.0  0.4694119162366627  0.2557472021654037  0.5119209511714509  1.0000
  C   C7        1.0  0.4149549381045196  0.3753278971817704  0.4772702001664384  1.0000
  C   C8        1.0  0.3268436724029742  0.3593355175371207  0.4819711392283681  1.0000
  C   C9        1.0  0.2716694817456197  0.4823955725286393  0.4463030421940932  1.0000
  N   N2        1.0  0.2273224213141586  0.5813199950775443  0.4176290631134467  1.0000
  C   C10       1.0  0.29250915780886094  0.22358443973364905  0.5213766601661134  1.0000
  C   C11       1.0  0.34603373312076546  0.1042509228635804  0.5559606138619961  1.0000
  C   C12       1.0  0.43396195200040577  0.1198039812434668  0.5513874036495117  1.0000
  O   O1        1.0  0.598101003035305  0.4002633551190229  0.4700560056767211  1.0000
  H   H1        1.0  0.7638612291606884  0.19077706215189472  0.5303982178513849  1.0000
  H   H2        1.0  0.6167392895181045  0.056193377082530915  0.5694047329754599  1.0000
  H   H3        1.0  0.4409315145695083  0.4809663622495699  0.44660047048405893  1.0000
  H   H4        1.0  0.22447351269199012  0.21003975036909317  0.5253557523860035  1.0000
  H   H5        1.0  0.319322541663009  0.9993346521523193  0.5864211401071713  1.0000
  H   H6        1.0  0.4736110794543335  0.025283334353625175  0.578789498806112  1.0000
  C   C13       1.0  0.010238111908970282  0.1603026708069184  0.41543353315943965  1.0000
  C   C14       1.0  0.9904125371237135  0.24516004158898697  0.2864572017530118  1.0000
  C   C15       1.0  0.9633797915382832  0.18205034021892796  0.16311915081712192  1.0000
  C   C16       1.0  0.9560157730797458  0.0310964949122845  0.16829342869898567  1.0000
  C   C17       1.0  0.9767272511675407  0.9450636705002748  0.2944965180608663  1.0000
  C   C18       1.0  0.005262935616225928  0.007239937854784495  0.41837854359574944  1.0000
  O   O2        1.0  0.9440690437324728  0.2730238675352301  0.038387620296810754  1.0000
  C   C19       1.0  0.9157485385469458  0.22383050520824566  0.9054759610712266  1.0000
  H   H7        1.0  0.01724441436073154  0.23312675524505133  0.770621237637169  1.0000
  H   H8        1.0  0.9939901455022496  0.36204113380123726  0.28219120795895636  1.0000
  H   H9        1.0  0.935072906059113  0.978887867705612  0.07488209220399122  1.0000
  H   H10       1.0  0.9723238657181853  0.8286496413875735  0.2940013163430999  1.0000
  H   H11       1.0  0.013532232820682388  0.7056800186261564  0.6566229368066923  1.0000
  H   H12       1.0  0.8549463800683528  0.16620970913045552  0.9219073286640072  1.0000
  H   H13       1.0  0.9643845673478721  0.15113882953781554  0.8623613084552559  1.0000
  H   H14       1.0  0.9054192967983802  0.31848119781326223  0.8256489714974715  1.0000
  C   C20       1.0  0.007625398802767247  0.5882859705384538  0.993080960183526  1.0000
  C   C21       1.0  0.08512483477284727  0.6024896514184719  0.06545190282841551  1.0000
  C   C22       1.0  0.1616534663463609  0.6031645577707048  0.9902656030141515  1.0000
  C   C23       1.0  0.16202752620431382  0.5895028985432142  0.8418428308200174  1.0000
  C   C24       1.0  0.08584182035695331  0.5776888136415608  0.7675527000313074  1.0000
  C   C25       1.0  0.007875634639158635  0.5792566601923006  0.8407311086553921  1.0000
  F   F1        1.0  0.23578411074417915  0.61535368863639  0.061992541793362665  1.0000
  H   H15       1.0  0.8118233383215454  0.47332660867594445  0.10517390607456445  1.0000
  H   H16       1.0  0.0865871172046686  0.6096444398742242  0.18140908855714355  1.0000
  H   H17       1.0  0.22144594292105557  0.5894412788188415  0.7837269155460005  1.0000
  H   H18       1.0  0.08781464530148209  0.5707743430036114  0.65160222371212  1.0000
  H   H19       1.0  0.875280041726042  0.5077994015797538  0.5651899113755379  1.0000
  Zn  Zn1       1.0  0.914900273452182  0.584811922702521  0.41659976603512083  1.0000
  Zn  Zn2       1.0  0.10059268316870518  0.5827300913194344  0.4172116132922776  1.0000
  C   C26       1.0  0.007860216738475811  0.5752185156067346  0.6804871000349477  1.0000
  C   C27       1.0  0.007634756991109493  0.5923252937050842  0.15332443395750062  1.0000
  C   C28       1.0  0.006197305269307396  0.8472120797207532  0.4120705544707819  1.0000
  C   C29       1.0  0.00929761529677231  0.32032999691308595  0.4217410502349941  1.0000
  O   O3        1.0  0.07810723638466777  0.5928845920281867  0.20733577856740681  1.0000
  O   O4        1.0  0.07832398595778867  0.5730780719704318  0.6269397140884809  1.0000
  O   O5        1.0  0.07698021439923997  0.792716309484897  0.4101914565376332  1.0000
  O   O6        1.0  0.0794509444864262  0.37324636669275013  0.4240839277303725  1.0000
  O   O7        1.0  0.936041948766743  0.7942956480412828  0.40972745138064615  1.0000
  O   O8        1.0  0.9373857101210801  0.5746591439168753  0.6264756380017871  1.0000
  O   O9        1.0  0.9371689603871904  0.5944656322054662  0.20686996708144934  1.0000
  O   O10       1.0  0.9385126685780214  0.37482739540307897  0.4236182244159181  1.0000
