data_image0
_chemical_formula_structural       NC9NC3OH6C7NH5C6OCH8Zn2C4O8
_chemical_formula_sum              "N3 C30 O10 H19 Zn2"
_cell_length_a       15.78231758774541
_cell_length_b       10.302819778424748
_cell_length_c       9.273891588657152
_cell_angle_alpha    86.07629757388264
_cell_angle_beta     89.76748324947235
_cell_angle_gamma    89.6314472413266

_space_group_name_H-M_alt    "P 1"
_space_group_IT_number       1

loop_
  _space_group_symop_operation_xyz
  'x, y, z'

loop_
  _atom_site_type_symbol
  _atom_site_label
  _atom_site_symmetry_multiplicity
  _atom_site_fract_x
  _atom_site_fract_y
  _atom_site_fract_z
  _atom_site_occupancy
  N   N1        1.0  0.8030634268290426  0.3998961982445204  0.4127927434373193  1.0000
  C   C1        1.0  0.754444711187284  0.31807559856544687  0.4395179997003533  1.0000
  C   C2        1.0  0.694082793792037  0.2165163492409976  0.4726909277422733  1.0000
  C   C3        1.0  0.7136105209980884  0.08894084722533724  0.5142733366401795  1.0000
  C   C4        1.0  0.636814311361695  0.02711343976091274  0.5345085418525894  1.0000
  C   C5        1.0  0.5751333203917501  0.12153428582761827  0.503778615924309  1.0000
  C   C6        1.0  0.4820235793015755  0.10407814519405623  0.5095619581625079  1.0000
  C   C7        1.0  0.4283920569736147  0.21111451511773227  0.47454257146679346  1.0000
  C   C8        1.0  0.3401701626997486  0.19680096312123663  0.4792927208956761  1.0000
  C   C9        1.0  0.2858454776320137  0.30695153710201906  0.44324527451199325  1.0000
  N   N2        1.0  0.24218131520225433  0.3954983755704453  0.41426634936886053  1.0000
  C   C10       1.0  0.3048983270917259  0.07529175097394547  0.5191166335998008  1.0000
  C   C11       1.0  0.3575991359178095  0.968476715179005  0.5540684545084886  1.0000
  C   C12       1.0  0.44563494927212505  0.9823970394286272  0.5494473876657378  1.0000
  O   O1        1.0  0.6117102096251517  0.2334343796426992  0.46725149231826735  1.0000
  H   H1        1.0  0.7760256329960974  0.04591735092179272  0.5282399801214515  1.0000
  H   H2        1.0  0.6279746437844843  0.9254519918933093  0.567661369937793  1.0000
  H   H3        1.0  0.45509805412267307  0.30567018477838936  0.44354726566706404  1.0000
  H   H4        1.0  0.23676899374515983  0.06316889704285766  0.5231374075288355  1.0000
  H   H5        1.0  0.3301635087935676  0.8745674809829004  0.5848523304479232  1.0000
  H   H6        1.0  0.4846315629225009  0.8977920834883324  0.577140847568332  1.0000
  C   C13       1.0  0.022626387371033285  0.016444274071410137  0.4135357545286651  1.0000
  C   C14       1.0  0.9727551484949651  0.008070090115804174  0.5395892695560109  1.0000
  C   C15       1.0  0.9479437159107036  0.8868012746448616  0.602302085383223  1.0000
  C   C16       1.0  0.9727552168645266  0.7727690796587842  0.5395892745091162  1.0000
  C   C17       1.0  0.0226264011969306  0.7789403014632389  0.4135357974163254  1.0000
  C   C18       1.0  0.04730147019057518  0.9012906956354775  0.3511676624421689  1.0000
  C   C19       1.0  0.8968184668944559  0.8793456166982914  0.7315254617372589  1.0000
  N   N3        1.0  0.8557304963775333  0.8733537367745274  0.8353786683522597  1.0000
  H   H7        1.0  0.04151639792012474  0.3469386368748584  0.3657891337166226  1.0000
  H   H8        1.0  0.9530864886002075  0.0956260755987326  0.5893031384378866  1.0000
  H   H9        1.0  0.9530865944626867  0.6794764701359937  0.5893031045505952  1.0000
  H   H10       1.0  0.08576040706958699  0.9068991269249782  0.25395973039531095  1.0000
  H   H11       1.0  0.04151647529191749  0.45395555640297003  0.365789243527191  1.0000
  C   C20       1.0  0.024014476408654728  0.39423997132015254  0.990265108737963  1.0000
  C   C21       1.0  0.09340397393034583  0.44838190312393356  0.059071671094421685  1.0000
  C   C22       1.0  0.15798727086672004  0.5122665920273795  0.9794786595076337  1.0000
  C   C23       1.0  0.15341201289304052  0.5223323564260969  0.8280226937372221  1.0000
  C   C24       1.0  0.08580264233839419  0.46738648143793293  0.7578799072034417  1.0000
  C   C25       1.0  0.021238290202241883  0.4011446035594508  0.8368064335706888  1.0000
  O   O2        1.0  0.22506278616378128  0.5648332043398205  0.054910364197321426  1.0000
  C   C26       1.0  0.29483709363058463  0.6324609858589629  0.9880681475433208  1.0000
  H   H12       1.0  0.8224737115028283  0.31651811389668616  0.10060600910756712  1.0000
  H   H13       1.0  0.09662853996336973  0.4438233082392353  0.1760164435535867  1.0000
  H   H14       1.0  0.20222183045095088  0.5714199226344578  0.7632643580936165  1.0000
  H   H15       1.0  0.08511895928637059  0.47408454517880694  0.6407964372272201  1.0000
  H   H16       1.0  0.8868373458230631  0.34365815134251276  0.5609127568158083  1.0000
  H   H17       1.0  0.27209258523497937  0.7205453065121612  0.923596249469647  1.0000
  H   H18       1.0  0.3301666227609974  0.5676731132568489  0.9177740343945362  1.0000
  H   H19       1.0  0.3382104110259645  0.6630591398208701  0.07305724750355491  1.0000
  Zn  Zn1       1.0  0.9297833330256646  0.3986236815308737  0.4132263110658152  1.0000
  Zn  Zn2       1.0  0.11546134187220769  0.3967603921387286  0.41384456449474305  1.0000
  C   C27       1.0  0.021761172623051328  0.39466743105662583  0.676792008285273  1.0000
  C   C28       1.0  0.023485529408982853  0.40071826154145374  0.1502790154981577  1.0000
  C   C29       1.0  0.022640871111244243  0.6347655547901725  0.4077920075560719  1.0000
  C   C30       1.0  0.022605767309830105  0.16061857924205514  0.41927909286229226  1.0000
  O   O3        1.0  0.093771846652009  0.40217966228618085  0.20421576830577348  1.0000
  O   O4        1.0  0.09240016915856764  0.391790853967813  0.6233240806034901  1.0000
  O   O5        1.0  0.09310958201183217  0.5856731470943319  0.4061046736322371  1.0000
  O   O6        1.0  0.0930623707938365  0.20829737820139194  0.4214350669926432  1.0000
  O   O7        1.0  0.952182240741269  0.5870866961054109  0.4056358083493541  1.0000
  O   O8        1.0  0.9514728281361968  0.39320596218194503  0.6228551384671126  1.0000
  O   O9        1.0  0.9528445113690834  0.4035947111229643  0.20374509321470313  1.0000
  O   O10       1.0  0.9521350351530521  0.2097124186336463  0.42096449996739516  1.0000
