data_image0
_chemical_formula_structural       NC9NC3OH6C8H10C6H6Zn2C4O8
_chemical_formula_sum              "N2 C30 O9 H22 Zn2"
_cell_length_a       15.78231758774541
_cell_length_b       9.275653711864159
_cell_length_c       10.681121600428288
_cell_angle_alpha    85.7433101150016
_cell_angle_beta     90.08384876913414
_cell_angle_gamma    89.08352321082864

_space_group_name_H-M_alt    "P 1"
_space_group_IT_number       1

loop_
  _space_group_symop_operation_xyz
  'x, y, z'

loop_
  _atom_site_type_symbol
  _atom_site_label
  _atom_site_symmetry_multiplicity
  _atom_site_fract_x
  _atom_site_fract_y
  _atom_site_fract_z
  _atom_site_occupancy
  N   N1        1.0  0.7890450505188717  0.5690875864067055  0.6253307919053481  1.0000
  C   C1        1.0  0.7410257346027896  0.4779763923922222  0.6482990297834568  1.0000
  C   C2        1.0  0.6814078192395946  0.3648852540428116  0.6768085337725915  1.0000
  C   C3        1.0  0.7018698438656504  0.2228245599283818  0.7125444922055884  1.0000
  C   C4        1.0  0.6255267026755318  0.15397638646796552  0.7299354243959055  1.0000
  C   C5        1.0  0.5631543749324915  0.2591175588167509  0.7035265307392431  1.0000
  C   C6        1.0  0.47017278544565694  0.23967856299184098  0.7084976194599868  1.0000
  C   C7        1.0  0.4157569455683214  0.35886926039737754  0.6784006922377956  1.0000
  C   C8        1.0  0.32764015859951773  0.3429297498600812  0.6824837706947233  1.0000
  C   C9        1.0  0.2725083058420451  0.46558836243603907  0.6515032059342076  1.0000
  N   N2        1.0  0.22819528004228642  0.5641900618339242  0.6265975873588747  1.0000
  C   C10       1.0  0.2932589225880167  0.20762214328522433  0.7167105307301078  1.0000
  C   C11       1.0  0.3467424432674418  0.08867786929655952  0.7467494348411037  1.0000
  C   C12       1.0  0.4346760321536668  0.10417949591147657  0.7427772986420511  1.0000
  O   O1        1.0  0.598911585504853  0.3837235150190188  0.6721345815899251  1.0000
  H   H1        1.0  0.7645998493943328  0.1749165975131275  0.7245469063044194  1.0000
  H   H2        1.0  0.6174316077078746  0.040771929548954366  0.7584271528149618  1.0000
  H   H3        1.0  0.44176988112989907  0.4641625703207757  0.6517616511108493  1.0000
  H   H4        1.0  0.22521860194126092  0.19412220617988796  0.7201666392480326  1.0000
  H   H5        1.0  0.31999514114374  0.9841043990845645  0.7732067661205309  1.0000
  H   H6        1.0  0.47429263874011657  0.009967254458521424  0.7665781813136534  1.0000
  C   C13       1.0  0.011002462452963435  0.14322312976726237  0.624802434275199  1.0000
  C   C14       1.0  0.9911155798713708  0.22685086873753324  0.513058569195074  1.0000
  C   C15       1.0  0.9635884213883172  0.1619308534401407  0.4061392013168812  1.0000
  C   C16       1.0  0.9572086140693961  0.011408283767618599  0.4101221797081249  1.0000
  C   C17       1.0  0.978009936660555  0.9265828813690729  0.5194553041520309  1.0000
  C   C18       1.0  0.006246006901533097  0.9900433184917692  0.6271367258527418  1.0000
  C   C19       1.0  0.9437413142005724  0.25294032937520927  0.28676208480612764  1.0000
  C   C20       1.0  0.023006798183219157  0.2738952895238389  0.20640372196993062  1.0000
  H   H7        1.0  0.0879225906046146  0.4069091822592661  0.7985982282449162  1.0000
  H   H8        1.0  0.9951728753522592  0.343624307371343  0.5096964542216482  1.0000
  H   H9        1.0  0.9369174201546446  0.9593937384032651  0.32792189203454236  1.0000
  H   H10       1.0  0.9740913911997846  0.8101554637938047  0.5186795867119061  1.0000
  H   H11       1.0  0.014219681021592212  0.6908471817842355  0.8336678722817201  1.0000
  H   H12       1.0  0.8943416726760504  0.20061085616504704  0.23216472043918146  1.0000
  H   H13       1.0  0.91802492751652  0.36039052022862017  0.30888423253524877  1.0000
  H   H14       1.0  0.07238796714799034  0.32954103847217464  0.2582474768301861  1.0000
  H   H15       1.0  0.04844136560434076  0.16770513844341517  0.18070869426963254  1.0000
  H   H16       1.0  0.007025547625339135  0.34113255853243696  0.11895403520516856  1.0000
  C   C21       1.0  0.008624257655064138  0.5666332221147061  0.25822436462386467  1.0000
  C   C22       1.0  0.9484231453469711  0.4871183579139404  0.1964058635805317  1.0000
  C   C23       1.0  0.9484230919219084  0.4871184509576376  0.06552372372987936  1.0000
  C   C24       1.0  0.00862419064330866  0.5666332935376936  0.9937148003028842  1.0000
  C   C25       1.0  0.06877561619295225  0.6460822614767636  0.05553239340586713  1.0000
  C   C26       1.0  0.0687756054770603  0.6460822392395331  0.18642469197600686  1.0000
  H   H17       1.0  0.06950353611152105  0.6470446046020379  0.5518825837042869  1.0000
  H   H18       1.0  0.9012346715333039  0.4247908492764787  0.24913228465240866  1.0000
  H   H19       1.0  0.9012346534547424  0.4247909173449018  0.02062825556291692  1.0000
  H   H20       1.0  0.11597025180589404  0.7084179839044884  0.0028503484434636572  1.0000
  H   H21       1.0  0.11597020939578573  0.7084179338351579  0.23127471566538094  1.0000
  H   H22       1.0  0.06950380340153961  0.6470440993007176  0.6899535573689803  1.0000
  Zn  Zn1       1.0  0.91577433857967  0.5676704151688265  0.625703576868726  1.0000
  Zn  Zn2       1.0  0.1014660295876888  0.5655954649876298  0.6262350070270817  1.0000
  C   C27       1.0  0.008654599084370718  0.5608891869732486  0.8546755357731  1.0000
  C   C28       1.0  0.008587786611877535  0.5723784898057205  0.3972631818538295  1.0000
  C   C29       1.0  0.007140723643457969  0.829976353687156  0.6217052041825342  1.0000
  C   C30       1.0  0.010101608419394559  0.3032895914705751  0.6302335752529844  1.0000
  O   O2        1.0  0.07904461092590975  0.5735129309448941  0.4441275366870996  1.0000
  O   O3        1.0  0.07913347774183621  0.5581788189186028  0.8082141606440514  1.0000
  O   O4        1.0  0.07791005422144681  0.775470119726813  0.6200889709949489  1.0000
  O   O5        1.0  0.080267971024373  0.35622164115920807  0.632252632287152  1.0000
  O   O6        1.0  0.9369723337755157  0.7770442397068966  0.6196859514207216  1.0000
  O   O7        1.0  0.9381957475618313  0.5597546712295727  0.8078110790733015  1.0000
  O   O8        1.0  0.93810688108456  0.5750887330096222  0.4437229493554209  1.0000
  O   O9        1.0  0.9393302412374799  0.35779743291106025  0.6318481388165897  1.0000
