data_image0
_chemical_formula_structural       NC9NC3OH6C6NCOH7C8H10Zn2C4O8
_chemical_formula_sum              "N3 C31 O10 H23 Zn2"
_cell_length_a       15.78231758774541
_cell_length_b       10.299619329790078
_cell_length_c       9.275657083861812
_cell_angle_alpha    85.86033376960795
_cell_angle_beta     89.58874472212382
_cell_angle_gamma    89.65730562172189

_space_group_name_H-M_alt    "P 1"
_space_group_IT_number       1

loop_
  _space_group_symop_operation_xyz
  'x, y, z'

loop_
  _atom_site_type_symbol
  _atom_site_label
  _atom_site_symmetry_multiplicity
  _atom_site_fract_x
  _atom_site_fract_y
  _atom_site_fract_z
  _atom_site_occupancy
  N   N1        1.0  0.8063650587212073  0.40584403353655363  0.41279798671204215  1.0000
  C   C1        1.0  0.7576736154326835  0.32390578605956755  0.4395164157620981  1.0000
  C   C2        1.0  0.697221424642686  0.2222005058678176  0.47268086961196865  1.0000
  C   C3        1.0  0.7166359141725037  0.0944418722539011  0.5142526247739758  1.0000
  C   C4        1.0  0.6397846746754754  0.032525424109738355  0.534482675016507  1.0000
  C   C5        1.0  0.5781874092391462  0.12708164908192243  0.5037606386389333  1.0000
  C   C6        1.0  0.4850620033861074  0.1096001245296987  0.5095425323718803  1.0000
  C   C7        1.0  0.4315257274917804  0.21679060081277535  0.47453207121331586  1.0000
  C   C8        1.0  0.343290974037077  0.2024562069548208  0.4792810336948077  1.0000
  C   C9        1.0  0.289064323289302  0.3127654029496043  0.44324277162910564  1.0000
  N   N2        1.0  0.2454789704030008  0.4014397580251272  0.4142712293502513  1.0000
  C   C10       1.0  0.3079108869531155  0.08077180937321371  0.5190948208547688  1.0000
  C   C11       1.0  0.360516637471934  0.9738029690010556  0.554037735161629  1.0000
  C   C12       1.0  0.4485649593115446  0.9877435674652022  0.5494178225182109  1.0000
  O   O1        1.0  0.6148637207929889  0.23914256091295183  0.46724285439412716  1.0000
  H   H1        1.0  0.779012940982327  0.05135681380208146  0.5282156698078071  1.0000
  H   H2        1.0  0.6308547402359764  0.9307179846694693  0.5676270151016276  1.0000
  H   H3        1.0  0.458315973012223  0.3114826140404412  0.4435446443600022  1.0000
  H   H4        1.0  0.23977066683215753  0.0686313116665771  0.523114589266223  1.0000
  H   H5        1.0  0.3329973370870494  0.879758321717275  0.5848137860660769  1.0000
  H   H6        1.0  0.48748626343930607  0.9030167556047787  0.5771042286776111  1.0000
  C   C13       1.0  0.02581386725809387  0.022274329063872278  0.41349670915655046  1.0000
  C   C14       1.0  0.985633695342556  0.03014482550733799  0.2784452524359653  1.0000
  C   C15       1.0  0.9666569371043113  0.917364890596296  0.2094030284974524  1.0000
  C   C16       1.0  0.9858854634305062  0.7949843562734102  0.27855706935825353  1.0000
  C   C17       1.0  0.02603814869392429  0.7849994975978384  0.4135850109148105  1.0000
  C   C18       1.0  0.046076809823091036  0.8992594665178968  0.4800200708881428  1.0000
  N   N3        1.0  0.9243595151079842  0.929233743973273  0.0722113729843572  1.0000
  C   C19       1.0  0.9382601716064594  0.8438913534609968  0.9588332745918189  1.0000
  O   O2        1.0  0.9977140490752254  0.7615986626122928  0.9650929018991699  1.0000
  H   H7        1.0  0.10079727399632854  0.2146413123838098  0.6689544709219548  1.0000
  H   H8        1.0  0.9694834184743261  0.12416462626607383  0.22555653617243565  1.0000
  H   H9        1.0  0.968021373650865  0.7075395071203545  0.2286327436237361  1.0000
  H   H10       1.0  0.07706125919805573  0.8923165190730052  0.5841216732885282  1.0000
  H   H11       1.0  0.04030856042589881  0.45366447684903594  0.46643076478330214  1.0000
  H   H12       1.0  0.885258993618369  0.01011946815735909  0.048733375106025933  1.0000
  H   H13       1.0  0.8985192116497613  0.8527226286273107  0.8640374726925066  1.0000
  C   C20       1.0  0.02808374029097105  0.4016575181287605  0.9902279795127202  1.0000
  C   C21       1.0  0.07200417388280611  0.5002150802519043  0.05532707010025195  1.0000
  C   C22       1.0  0.10844457248210215  0.6044060486820508  0.971722736673303  1.0000
  C   C23       1.0  0.10222181189049895  0.6091408367434119  0.8210635089376015  1.0000
  C   C24       1.0  0.06013161411652912  0.511146371927353  0.7545180216364344  1.0000
  C   C25       1.0  0.023768302709854527  0.4056162612928844  0.8368537370004763  1.0000
  C   C26       1.0  0.156283874750476  0.7080690483498677  0.0430950833046988  1.0000
  C   C27       1.0  0.24934201615267315  0.6700775437373387  0.0612476540106206  1.0000
  H   H14       1.0  0.9899895905496504  0.19486011734570297  0.28790345791850314  1.0000
  H   H15       1.0  0.07638439982824852  0.497763428455851  0.17206651537339468  1.0000
  H   H16       1.0  0.13081027631652953  0.688229032348755  0.7547822978049421  1.0000
  H   H17       1.0  0.05795267582644037  0.5162292710959193  0.637536971660333  1.0000
  H   H18       1.0  0.9236820698522171  0.25694589524088873  0.5686663828615273  1.0000
  H   H19       1.0  0.15167130119569183  0.8023957810664495  0.9772501159910165  1.0000
  H   H20       1.0  0.1281064966062706  0.7230599118819581  0.15087873076993064  1.0000
  H   H21       1.0  0.25534673340256653  0.577630740704365  0.1300053858431809  1.0000
  H   H22       1.0  0.2791562806415866  0.6578261142518174  0.9541714961449581  1.0000
  H   H23       1.0  0.28343913275579324  0.7476940229309834  0.1139376014956135  1.0000
  Zn  Zn1       1.0  0.9330838011880183  0.40456962468962265  0.4132314499297254  1.0000
  Zn  Zn2       1.0  0.11876013626110504  0.402703622540068  0.4138495488355389  1.0000
  C   C28       1.0  0.024580603040388116  0.3996943442409837  0.6768227125166328  1.0000
  C   C29       1.0  0.027265361749264194  0.40758052188735494  0.15025843467343436  1.0000
  C   C30       1.0  0.02602069884050806  0.6408013617809758  0.40782392939917145  1.0000
  C   C31       1.0  0.025825201740176107  0.16647194504642826  0.4192572942530839  1.0000
  O   O3        1.0  0.0974539062683184  0.4088545322437669  0.20420068197944174  1.0000
  O   O4        1.0  0.09531610241088861  0.3970030997700582  0.6233491729023206  1.0000
  O   O5        1.0  0.09647804046411057  0.5917000822027878  0.40613074931812876  1.0000
  O   O6        1.0  0.09629190541000132  0.21415755923257263  0.42141899726960497  1.0000
  O   O7        1.0  0.9555519686769407  0.5931156886352711  0.4056620012771508  1.0000
  O   O8        1.0  0.9543900314705053  0.3984202661416296  0.6228803481806455  1.0000
  O   O9        1.0  0.9565278442051037  0.4102716452549946  0.20373012412510216  1.0000
  O   O10       1.0  0.9553658427897002  0.21557466346041854  0.42094854749078503  1.0000
