data_image0
_chemical_formula_structural       NC9NC3OH6C7NH5C6ClH5Zn2C4O8
_chemical_formula_sum              "N3 C29 O9 H16 Cl1 Zn2"
_cell_length_a       15.78231758774541
_cell_length_b       10.302819778424748
_cell_length_c       10.302974078461048
_cell_angle_alpha    85.56070265291797
_cell_angle_beta     90.08385130592438
_cell_angle_gamma    89.6314472413266

_space_group_name_H-M_alt    "P 1"
_space_group_IT_number       1

loop_
  _space_group_symop_operation_xyz
  'x, y, z'

loop_
  _atom_site_type_symbol
  _atom_site_label
  _atom_site_symmetry_multiplicity
  _atom_site_fract_x
  _atom_site_fract_y
  _atom_site_fract_z
  _atom_site_occupancy
  N   N1        1.0  0.7978583308840694  0.41284206873569174  0.5703926852441348  1.0000
  C   C1        1.0  0.7493272581902802  0.3308034876272907  0.5944642875408006  1.0000
  C   C2        1.0  0.6890741282722324  0.22897366719218892  0.6243433473702664  1.0000
  C   C3        1.0  0.7087382210518669  0.1010590031180909  0.6617968782055248  1.0000
  C   C4        1.0  0.6320083708554025  0.03906654956724065  0.680022851699305  1.0000
  C   C5        1.0  0.5702266040024235  0.13373804068337258  0.6523442188633413  1.0000
  C   C6        1.0  0.4771358288356391  0.11623472889474384  0.6575533107026581  1.0000
  C   C7        1.0  0.4233894637441187  0.2235567303532866  0.6260111342342378  1.0000
  C   C8        1.0  0.3351831471356321  0.2092044343181243  0.6302896229707502  1.0000
  C   C9        1.0  0.2807402478799121  0.3196490250824684  0.5978214668334185  1.0000
  N   N2        1.0  0.23698105180843482  0.40843222676705637  0.5717199711484098  1.0000
  C   C10       1.0  0.300041910279393  0.08737040308108379  0.6661592654945068  1.0000
  C   C11       1.0  0.3528573402934336  0.980270286843723  0.6976405850439829  1.0000
  C   C12       1.0  0.4408779992964916  0.9942283022849837  0.693478361784823  1.0000
  O   O1        1.0  0.606683705991798  0.2459360637132193  0.6194440145086326  1.0000
  H   H1        1.0  0.771199135335021  0.05792158951927351  0.6743767196854931  1.0000
  H   H2        1.0  0.6232774248394858  0.9371346945319328  0.7098838073744271  1.0000
  H   H3        1.0  0.4499938147219766  0.3183652096032763  0.5980934721197451  1.0000
  H   H4        1.0  0.23192576268030074  0.07521475417735246  0.6697808012430113  1.0000
  H   H5        1.0  0.3255226659761805  0.8861099675612311  0.7253678109860187  1.0000
  H   H6        1.0  0.4799654310270174  0.9093974678755294  0.7184220310403344  1.0000
  C   C13       1.0  0.017423728060597332  0.029384084279450606  0.5710619198930695  1.0000
  C   C14       1.0  0.9679658697542096  0.019981759560404155  0.6845990943160531  1.0000
  C   C15       1.0  0.9433600979127466  0.8982014343364164  0.7410849123242695  1.0000
  C   C16       1.0  0.967965938140014  0.7846807490629846  0.6845990987773456  1.0000
  C   C17       1.0  0.017423742027140587  0.7918801113214713  0.5710619585222485  1.0000
  C   C18       1.0  0.04189428062621525  0.91473920389766  0.5148865966732685  1.0000
  C   C19       1.0  0.892658624726325  0.8896917810229562  0.8574772002938049  1.0000
  N   N3        1.0  0.8519112309692358  0.8828528345567658  0.9510184207133663  1.0000
  H   H7        1.0  0.03615715808666775  0.36026788681540256  0.5280562455644413  1.0000
  H   H8        1.0  0.9484602417862881  0.10713225968185935  0.7293766810518005  1.0000
  H   H9        1.0  0.9484603475376369  0.6909826544955183  0.7293766505293096  1.0000
  H   H10       1.0  0.08003443329426463  0.9211405003242055  0.42733081583124055  1.0000
  H   H11       1.0  0.036157235818573996  0.46728480544785705  0.5280563444714939  1.0000
  C   C20       1.0  0.017423741084250377  0.41063213908292573  0.18981945212973694  1.0000
  C   C21       1.0  0.0026847861127869965  0.2759356611839807  0.1990085628470455  1.0000
  C   C22       1.0  0.9953717621150906  0.20910293713917105  0.0866111578912856  1.0000
  C   C23       1.0  0.00268482400905401  0.2759357341252424  0.9639006639904868  1.0000
  C   C24       1.0  0.01742373892294835  0.410632072088124  0.9523044711966193  1.0000
  C   C25       1.0  0.024721385802550122  0.4773237502236618  0.06591631223844585  1.0000
  Cl  Cl1       1.0  0.9769593086415516  0.04083503699044111  0.09959408295750061  1.0000
  H   H12       1.0  0.02297613960215661  0.4613699725421514  0.5136610132916355  1.0000
  H   H13       1.0  0.996822771061106  0.22236372637084534  0.293188516514159  1.0000
  H   H14       1.0  0.9968228302711658  0.2223637072506639  0.8779875506192156  1.0000
  H   H15       1.0  0.0360884722503203  0.581205717231366  0.05790106910043291  1.0000
  H   H16       1.0  0.022975978369037753  0.4613699626723189  0.6206333823229224  1.0000
  Zn  Zn1       1.0  0.9245796589246856  0.41156601567835427  0.5707832022674009  1.0000
  Zn  Zn2       1.0  0.11025969527482182  0.4096976835743713  0.5713400669243094  1.0000
  C   C26       1.0  0.01742183727566471  0.40546002239767054  0.8081784429366439  1.0000
  C   C27       1.0  0.017419544544087007  0.41580529457457005  0.33394495976031724  1.0000
  C   C28       1.0  0.017419375726343223  0.6477522131991227  0.565888491752432  1.0000
  C   C29       1.0  0.01742194273376607  0.17351154458220153  0.5762349799700839  1.0000
  O   O2        1.0  0.08788274226202497  0.4168267664986125  0.38252612395870567  1.0000
  O   O3        1.0  0.08788549080388908  0.40301955021219493  0.7600195524057052  1.0000
  O   O4        1.0  0.08788255317505933  0.5986735680452331  0.564368699734108  1.0000
  O   O5        1.0  0.08788561653083793  0.221172758590513  0.5781768790978945  1.0000
  O   O6        1.0  0.9469536743051862  0.6000909413011961  0.5639463898969563  1.0000
  O   O7        1.0  0.9469566119301741  0.4044384832980572  0.7595971733461391  1.0000
  O   O8        1.0  0.9469538634446946  0.4182456543417681  0.3821021840162153  1.0000
  O   O9        1.0  0.9469567377100404  0.22259163714771346  0.5777530364909533  1.0000
