data_image0
_chemical_formula_structural       NC9NC3OH6C6H6C6ClH5Zn2C4O8
_chemical_formula_sum              "N2 C28 O9 H17 Cl1 Zn2"
_cell_length_a       15.78231758774541
_cell_length_b       10.681118228259551
_cell_length_c       10.302974078461048
_cell_angle_alpha    85.5607029968737
_cell_angle_beta     90.08385130592438
_cell_angle_gamma    89.63144314392761

_space_group_name_H-M_alt    "P 1"
_space_group_IT_number       1

loop_
  _space_group_symop_operation_xyz
  'x, y, z'

loop_
  _atom_site_type_symbol
  _atom_site_label
  _atom_site_symmetry_multiplicity
  _atom_site_fract_x
  _atom_site_fract_y
  _atom_site_fract_z
  _atom_site_occupancy
  N   N1        1.0  0.7978582649357847  0.36280274204982654  0.570392693551713  1.0000
  C   C1        1.0  0.7493271960713714  0.28366976196490135  0.5944642953659875  1.0000
  C   C2        1.0  0.6890740709065104  0.18544649867009966  0.6243433545966892  1.0000
  C   C3        1.0  0.7087381696569133  0.06206225155141132  0.6617968846798037  1.0000
  C   C4        1.0  0.6320083223541171  0.002265415404610671  0.6800228578090655  1.0000
  C   C5        1.0  0.5702265510820861  0.09358387947219393  0.6523442255297744  1.0000
  C   C6        1.0  0.47713577673231683  0.07670049113860489  0.6575533172661712  1.0000
  C   C7        1.0  0.4233894066312472  0.18022141616376297  0.6260111414288088  1.0000
  C   C8        1.0  0.3351830906926933  0.16637744249943642  0.6302896300809295  1.0000
  C   C9        1.0  0.28074018628166886  0.272910362539756  0.597821474593017  1.0000
  N   N2        1.0  0.23698098606599172  0.35854908563638155  0.5717199794300574  1.0000
  C   C10       1.0  0.3000418595233924  0.048858467435646924  0.6661592718882958  1.0000
  C   C11       1.0  0.3528572945366252  0.9455515690129925  0.6976405908080185  1.0000
  C   C12       1.0  0.4408779528881544  0.9590152265143199  0.6934783676309324  1.0000
  O   O1        1.0  0.6066836478343097  0.20180812959979177  0.6194440218347954  1.0000
  H   H1        1.0  0.7711990859536247  0.02045265707634525  0.6743767259061217  1.0000
  H   H2        1.0  0.6232773810961496  0.9039437313195295  0.7098838128848233  1.0000
  H   H3        1.0  0.44999375318365886  0.2716720165886799  0.5980934798717945  1.0000
  H   H4        1.0  0.2319257124916984  0.03713334116429756  0.6697808075653247  1.0000
  H   H5        1.0  0.32552262461456366  0.8547261723532666  0.7253678161963875  1.0000
  H   H6        1.0  0.4799653885783925  0.8771888877452364  0.7184220363876346  1.0000
  C   C13       1.0  0.017423680011267262  0.992925878781235  0.5710619259458969  1.0000
  C   C14       1.0  0.05462047945321835  0.9180522929766842  0.6742775115400998  1.0000
  C   C15       1.0  0.05462046649873864  0.7871700549263781  0.6742774521452044  1.0000
  C   C16       1.0  0.01742366578511323  0.7284162828758587  0.5710619820248559  1.0000
  C   C17       1.0  0.9802576579771008  0.8032781706243325  0.4679316912763296  1.0000
  C   C18       1.0  0.9802576708891545  0.9341704285980996  0.4679317440067763  1.0000
  H   H7        1.0  0.9798074187644789  0.29978637725210455  0.4666835589303455  1.0000
  H   H8        1.0  0.08377713597002656  0.9605454771581088  0.7551827187223925  1.0000
  H   H9        1.0  0.08377703179349827  0.7320414495714896  0.7551826954747545  1.0000
  H   H10       1.0  0.9510971998372737  0.7608305663212174  0.3870159203892929  1.0000
  H   H11       1.0  0.9510971776269431  0.9892550055702563  0.38701590976568223  1.0000
  H   H12       1.0  0.9798077307272979  0.4378570233407463  0.46668320868251856  1.0000
  C   C19       1.0  0.01742367523912014  0.36067108256914415  0.18981946042431974  1.0000
  C   C20       1.0  0.002684726554984973  0.23074521648178914  0.19900857034960695  1.0000
  C   C21       1.0  0.9953717056768894  0.16627954009629575  0.08661116500086807  1.0000
  C   C22       1.0  0.0026847644512484337  0.23074528683965356  0.9639006714930498  1.0000
  C   C23       1.0  0.017423673077821444  0.3606710179471311  0.9523044794912026  1.0000
  C   C24       1.0  0.024721316844405816  0.42500064391611714  0.06591632092517918  1.0000
  Cl  Cl1       1.0  0.976959260057717  0.003971267433616754  0.09959408907765965  1.0000
  H   H13       1.0  0.022976071388698616  0.4096119090733956  0.5136610218845599  1.0000
  H   H14       1.0  0.9968227140039214  0.17907066539371996  0.2931885237017158  1.0000
  H   H15       1.0  0.9968227732139819  0.1790706469507275  0.8779875578067733  1.0000
  H   H16       1.0  0.036088398443199665  0.5252033718928653  0.05790107839799696  1.0000
  H   H17       1.0  0.022975910155580204  0.4096118995531275  0.6206333909158461  1.0000
  Zn  Zn1       1.0  0.9245795930359642  0.361571883595069  0.5707832105674759  1.0000
  Zn  Zn2       1.0  0.1102596294733098  0.3597697231337471  0.5713400752133981  1.0000
  C   C25       1.0  0.017421771671957353  0.3556821492999258  0.808178451200815  1.0000
  C   C26       1.0  0.017419478457485482  0.36566101785283234  0.33394496808531904  1.0000
  C   C27       1.0  0.01741929881298221  0.589392957682749  0.5658885014412927  1.0000
  C   C28       1.0  0.017421887956891258  0.1319487055017292  0.5762349868703869  1.0000
  O   O2        1.0  0.08788267612774359  0.3666463118002714  0.38252613228971377  1.0000
  O   O3        1.0  0.08788542531409727  0.3533281125254981  0.7600195606555258  1.0000
  O   O4        1.0  0.08788247855257914  0.5420525551905837  0.5643687091343841  1.0000
  O   O5        1.0  0.08788555952924448  0.17792187870860787  0.578176886278448  1.0000
  O   O6        1.0  0.9469535996165459  0.5434197286365603  0.5639463993055664  1.0000
  O   O7        1.0  0.9469565463741498  0.3546967905561067  0.7595971816043039  1.0000
  O   O8        1.0  0.9469537972441826  0.36801494619055686  0.38210219235556697  1.0000
  O   O9        1.0  0.946956680642217  0.17929050414182335  0.5777530436798497  1.0000
