data_image0
_chemical_formula_structural       NC9NC3OH6C6NCOH7C6NH7Zn2C4O8
_chemical_formula_sum              "N4 C29 O10 H20 Zn2"
_cell_length_a       15.78231758774541
_cell_length_b       10.299619329790078
_cell_length_c       9.274774538082514
_cell_angle_alpha    85.06936260205663
_cell_angle_beta     90.43038941912484
_cell_angle_gamma    89.65730562172189

_space_group_name_H-M_alt    "P 1"
_space_group_IT_number       1

loop_
  _space_group_symop_operation_xyz
  'x, y, z'

loop_
  _atom_site_type_symbol
  _atom_site_label
  _atom_site_symmetry_multiplicity
  _atom_site_fract_x
  _atom_site_fract_y
  _atom_site_fract_z
  _atom_site_occupancy
  N   N1        1.0  0.7925767391917024  0.42577727347056604  0.410892605229525  1.0000
  C   C1        1.0  0.7441174038730424  0.3435034764841567  0.4376431088356407  1.0000
  C   C2        1.0  0.6839533188710135  0.24138169290447298  0.4708473754728655  1.0000
  C   C3        1.0  0.7037289499812834  0.11310097088392346  0.5124690360985868  1.0000
  C   C4        1.0  0.627053452698861  0.05093045902135218  0.5327233718213531  1.0000
  C   C5        1.0  0.565189299210082  0.14587251372236  0.5019644546946818  1.0000
  C   C6        1.0  0.4721141217448652  0.12831837593370676  0.5077532893923966  1.0000
  C   C7        1.0  0.41827370345323284  0.23594853911021718  0.47270079937813003  1.0000
  C   C8        1.0  0.33008020512017133  0.22155450431948376  0.4774554628259118  1.0000
  C   C9        1.0  0.27554048327716724  0.332316295080747  0.4413739380648336  1.0000
  N   N2        1.0  0.23170344920670724  0.4213544959041131  0.4123676164449017  1.0000
  C   C10       1.0  0.2950459878211807  0.0993700961749504  0.5173170450694027  1.0000
  C   C11       1.0  0.3479552939452223  0.9919624172119632  0.5523019071442898  1.0000
  C   C12       1.0  0.43596348174317184  0.005961035906946854  0.5476764484544783  1.0000
  O   O1        1.0  0.6015483739702076  0.25839204250896053  0.4654028321045991  1.0000
  H   H1        1.0  0.7662272763641411  0.06984055433367709  0.526448843288227  1.0000
  H   H2        1.0  0.6184114493153097  0.9487067687964696  0.5659075005479446  1.0000
  H   H3        1.0  0.44479475542472974  0.33102971503376777  0.44167617318357144  1.0000
  H   H4        1.0  0.22694068817715482  0.08717911528624023  0.5213416390747205  1.0000
  H   H5        1.0  0.32070335084704366  0.8975312618455544  0.5831149036404188  1.0000
  H   H6        1.0  0.47512530283824644  0.9208865179749169  0.5753960911932001  1.0000
  C   C13       1.0  0.012031617660611449  0.04219879393206649  0.41159216646632046  1.0000
  C   C14       1.0  0.9706782285851918  0.051765365019914134  0.2763785851121543  1.0000
  C   C15       1.0  0.951101687687448  0.9398525126880415  0.20725347835601493  1.0000
  C   C16       1.0  0.9709309680475735  0.816603491507563  0.2764905362668162  1.0000
  C   C17       1.0  0.012256666190263887  0.8049228535081816  0.41168057422780735  1.0000
  C   C18       1.0  0.03287246105994068  0.9183484825147366  0.47819538720800514  1.0000
  N   N3        1.0  0.9076124562256846  0.9534443188860156  0.06989712897422384  1.0000
  C   C19       1.0  0.9205281760650602  0.8695258131846204  0.9563829240701063  1.0000
  O   O2        1.0  0.9800364320821942  0.7871545093729977  0.9626500658449659  1.0000
  H   H7        1.0  0.08923423355812465  0.23135755245412404  0.6673565964974892  1.0000
  H   H8        1.0  0.9540684975874674  0.14644938083272407  0.22342637776194607  1.0000
  H   H9        1.0  0.9526331763511257  0.7297856284313133  0.22650627809459678  1.0000
  H   H10       1.0  0.06476126044543484  0.9100981512580872  0.5824219600052609  1.0000
  H   H11       1.0  0.026986158829404028  0.47292415725838083  0.4645897676080988  1.0000
  H   H12       1.0  0.8683079769953729  0.03462489688263548  0.04639094656611631  1.0000
  H   H13       1.0  0.8799637073201295  0.8795476031361829  0.8614733230676888  1.0000
  C   C20       1.0  0.010624476398952254  0.42689770026162566  0.987815317255579  1.0000
  C   C21       1.0  0.07068738543954578  0.5029307963670968  0.05476237486546376  1.0000
  C   C22       1.0  0.134548523695045  0.5682278083310719  0.9742195351386922  1.0000
  C   C23       1.0  0.13886390183648878  0.5577855782283914  0.825255420282629  1.0000
  C   C24       1.0  0.07907368648783897  0.48461061477219003  0.7566070447038586  1.0000
  C   C25       1.0  0.01366383066329746  0.4202238799389144  0.8354573893616264  1.0000
  N   N4        1.0  0.1955841221662975  0.644070432003276  0.04417508429810635  1.0000
  H   H14       1.0  0.8838941969320582  0.17430342690320066  0.11328079512452893  1.0000
  H   H15       1.0  0.0691639646768325  0.5091054615530022  0.1707780947606583  1.0000
  H   H16       1.0  0.18816928125052246  0.6074650850490093  0.7618960247930624  1.0000
  H   H17       1.0  0.08285103759166956  0.48096011750167134  0.6404462678989624  1.0000
  H   H18       1.0  0.9257053842120722  0.25407253418796216  0.5690609768212047  1.0000
  H   H19       1.0  0.19312596579112928  0.6522392153094096  0.1555376860428499  1.0000
  H   H20       1.0  0.24366619283385127  0.6927409952062678  0.9851001471751841  1.0000
  Zn  Zn1       1.0  0.9192992472342242  0.42449742087655773  0.4113265888049078  1.0000
  Zn  Zn2       1.0  0.10498095184763612  0.4226236561903578  0.4119454297172205  1.0000
  C   C26       1.0  0.013085915482494714  0.4163117691974987  0.6752342836458582  1.0000
  C   C27       1.0  0.011196312229287964  0.4308109249040384  0.1480378834792513  1.0000
  C   C28       1.0  0.012189168748633517  0.6607970695527514  0.40591257673175263  1.0000
  C   C29       1.0  0.012092995418422348  0.18632406428758297  0.4173596669473352  1.0000
  O   O3        1.0  0.0818534630982386  0.43140748919553285  0.20204488659975595  1.0000
  O   O4        1.0  0.08335688025412025  0.41429208441861554  0.621696550884528  1.0000
  O   O5        1.0  0.08263180140149173  0.6117170541643291  0.40421736404619835  1.0000
  O   O6        1.0  0.08257847820500142  0.23398253023139093  0.4195239650140534  1.0000
  O   O7        1.0  0.9417016575127787  0.6131385474764224  0.40374805328930274  1.0000
  O   O8        1.0  0.9424267365460544  0.4157151386328095  0.6212271633548831  1.0000
  O   O9        1.0  0.9409233132112949  0.4328305118153264  0.20157376385687997  1.0000
  O   O10       1.0  0.9416483286998435  0.23540554271051084  0.4190529504764382  1.0000
