data_image0
_chemical_formula_structural       NC9NC3OH6C6NH7C7OH6Zn2C4O8
_chemical_formula_sum              "N3 C29 O10 H19 Zn2"
_cell_length_a       15.78231758774541
_cell_length_b       9.274771166103582
_cell_length_c       9.274081674992354
_cell_angle_alpha    85.96953540669611
_cell_angle_beta     89.75780300142802
_cell_angle_gamma    90.23039320205511

_space_group_name_H-M_alt    "P 1"
_space_group_IT_number       1

loop_
  _space_group_symop_operation_xyz
  'x, y, z'

loop_
  _atom_site_type_symbol
  _atom_site_label
  _atom_site_symmetry_multiplicity
  _atom_site_fract_x
  _atom_site_fract_y
  _atom_site_fract_z
  _atom_site_occupancy
  N   N1        1.0  0.8127819066967767  0.5553868226664724  0.4099843693556713  1.0000
  C   C1        1.0  0.7636017410216177  0.464484174214975  0.43687465367615297  1.0000
  C   C2        1.0  0.7025429276451203  0.35165189508904215  0.47025242163943703  1.0000
  C   C3        1.0  0.72119524505663  0.20991557926970605  0.5120921451224414  1.0000
  C   C4        1.0  0.643974773940416  0.14122535446133266  0.5324520525823477  1.0000
  C   C5        1.0  0.5829416844011528  0.24612686073376744  0.5015316830422156  1.0000
  C   C6        1.0  0.48971215177706306  0.2267330891292898  0.5073502323492027  1.0000
  C   C7        1.0  0.4368151149535686  0.34565045193776545  0.4721149594239453  1.0000
  C   C8        1.0  0.34849499414567353  0.32974809546901795  0.4768939775676069  1.0000
  C   C9        1.0  0.2949261652201099  0.4521253385344537  0.4406243639061198  1.0000
  N   N2        1.0  0.2518696136725522  0.5505008403287028  0.4114668449778234  1.0000
  C   C10       1.0  0.3123893532217306  0.19475140460950935  0.5169629664650117  1.0000
  C   C11       1.0  0.3643571948596418  0.07607994348561697  0.552130227119983  1.0000
  C   C12       1.0  0.45248853636937525  0.09154542405084176  0.5474810846745506  1.0000
  O   O1        1.0  0.6202864257870486  0.37044781117839864  0.4647788622341935  1.0000
  H   H1        1.0  0.78331513993933  0.16211650259228372  0.5261455659997978  1.0000
  H   H2        1.0  0.6344375144211369  0.028279537666398014  0.5658099274351576  1.0000
  H   H3        1.0  0.4641699607137969  0.4507017672964815  0.4409289410469075  1.0000
  H   H4        1.0  0.2441768272085262  0.18128291393702645  0.5210081907656765  1.0000
  H   H5        1.0  0.3362771549694781  0.9717468176551931  0.5831035118125192  1.0000
  H   H6        1.0  0.49090458798760406  0.9975493517353111  0.5753451877544982  1.0000
  C   C13       1.0  0.02972602332568286  0.12938323832590304  0.4115024527298534  1.0000
  C   C14       1.0  0.010657991727828886  0.21175266905936319  0.2825437511988267  1.0000
  C   C15       1.0  0.999503189372861  0.14566860225054  0.15279398783880005  1.0000
  C   C16       1.0  0.00746395880941586  0.9958287093574792  0.1510635696404683  1.0000
  C   C17       1.0  0.02497115408680961  0.9121414005231367  0.2782463702965694  1.0000
  C   C18       1.0  0.034933484034554985  0.9764934056003958  0.409961284832272  1.0000
  N   N3        1.0  0.9809604149789263  0.23111903049263915  0.02242043638553226  1.0000
  H   H7        1.0  0.1240292098419522  0.2108122695341592  0.7272649054472511  1.0000
  H   H8        1.0  0.006387860453293426  0.32838794685883155  0.28197567013609226  1.0000
  H   H9        1.0  0.999282466464264  0.9435409417814329  0.05123557109368626  1.0000
  H   H10       1.0  0.028718735451472854  0.7958988059869654  0.2741310580293752  1.0000
  H   H11       1.0  0.09500932643463611  0.6806758876257765  0.6247777664416436  1.0000
  H   H12       1.0  0.9751230787039455  0.34325746857511286  0.022353913418090787  1.0000
  H   H13       1.0  0.9728508069319828  0.18286884694819294  0.9249630582113668  1.0000
  C   C19       1.0  0.033736373108079976  0.5491413629214867  0.9874738315361977  1.0000
  C   C20       1.0  0.10293196492931656  0.6111487158317552  0.0561180175379985  1.0000
  C   C21       1.0  0.1673949870441933  0.6838501690613008  0.9757176161342298  1.0000
  C   C22       1.0  0.16264763621390244  0.6949356182182527  0.8245585864580933  1.0000
  C   C23       1.0  0.09522240575378227  0.6320861005681295  0.754719063619798  1.0000
  C   C24       1.0  0.030923126465272732  0.556735231239134  0.8339898326068305  1.0000
  C   C25       1.0  0.23858377058507663  0.7487068108120241  0.051282098255155395  1.0000
  O   O2        1.0  0.2973047219299638  0.8152579296054818  0.982016970705875  1.0000
  H   H14       1.0  0.8324167172734233  0.4576794865233007  0.09833533490965873  1.0000
  H   H15       1.0  0.1056985562233923  0.6057635481688528  0.17317654711333463  1.0000
  H   H16       1.0  0.21150685867320496  0.7510445267874981  0.7600114422636683  1.0000
  H   H17       1.0  0.09448235404155247  0.6395471658919352  0.6376290926977157  1.0000
  H   H18       1.0  0.8966827674080362  0.4892155218696401  0.5585792403525565  1.0000
  H   H19       1.0  0.2409974002981261  0.7395097285251042  0.16821430947494975  1.0000
  Zn  Zn1       1.0  0.9394930791456779  0.5539730555549485  0.4104205033464938  1.0000
  Zn  Zn2       1.0  0.12515830120738802  0.5519029410236924  0.41104251480767906  1.0000
  C   C26       1.0  0.031417672207072256  0.5495538038733716  0.6739906644705453  1.0000
  C   C27       1.0  0.03323574632181492  0.5563239912724709  0.1474724986321272  1.0000
  C   C28       1.0  0.033963879722681334  0.8163200453148143  0.4045089524196648  1.0000
  C   C29       1.0  0.03068946454345567  0.2895560183044261  0.41695429046728716  1.0000
  O   O3        1.0  0.10352667688676154  0.557942656730039  0.20140557447169893  1.0000
  O   O4        1.0  0.10204234387607913  0.5463628775523419  0.6205292680084762  1.0000
  O   O5        1.0  0.10409748384462403  0.7617800152706242  0.4029208729888709  1.0000
  O   O6        1.0  0.101471473985834  0.34252552906669664  0.4190138611900964  1.0000
  O   O7        1.0  0.9631798430088387  0.7633504682198755  0.40244915674423054  1.0000
  O   O8        1.0  0.9611247139446505  0.5479350627361261  0.62005747175971  1.0000
  O   O9        1.0  0.9626090524617092  0.5595147761050281  0.20093204541149023  1.0000
  O   O10       1.0  0.9605538491347713  0.34409763909467705  0.4185404402112498  1.0000
