data_image0
_chemical_formula_structural       NC9NC3OH6C6H6C6H6Zn2C4O8
_chemical_formula_sum              "N2 C28 O9 H18 Zn2"
_cell_length_a       15.78231758774541
_cell_length_b       10.681118228259551
_cell_length_c       10.681121600428288
_cell_angle_alpha    85.56070829977578
_cell_angle_beta     90.08384876913414
_cell_angle_gamma    89.63144314392761

_space_group_name_H-M_alt    "P 1"
_space_group_IT_number       1

loop_
  _space_group_symop_operation_xyz
  'x, y, z'

loop_
  _atom_site_type_symbol
  _atom_site_label
  _atom_site_symmetry_multiplicity
  _atom_site_fract_x
  _atom_site_fract_y
  _atom_site_fract_z
  _atom_site_occupancy
  N   N1        1.0  0.7978583068257127  0.3628026136279223  0.6210055961740504  1.0000
  C   C1        1.0  0.7493272372559606  0.28366963570535386  0.644224982395208  1.0000
  C   C2        1.0  0.6890741112155923  0.1854463750945936  0.673046222525189  1.0000
  C   C3        1.0  0.708738208868543  0.062062131340363313  0.7091737717865705  1.0000
  C   C4        1.0  0.6320083610316946  0.002265296830805452  0.7267544842214948  1.0000
  C   C5        1.0  0.5702265905706947  0.09358375841201183  0.70005576853465  1.0000
  C   C6        1.0  0.47713581606829014  0.07670037054635648  0.7050804409192324  1.0000
  C   C7        1.0  0.42338944689146  0.18022129273807463  0.6746549640991124  1.0000
  C   C8        1.0  0.3351831308275391  0.16637731945808554  0.6787819798757488  1.0000
  C   C9        1.0  0.2807402273678868  0.2729102365817846  0.6474633061963193  1.0000
  N   N2        1.0  0.23698102791702802  0.3585489573337075  0.622285891672163  1.0000
  C   C10       1.0  0.3000418986071967  0.04885834761647301  0.7133817158287554  1.0000
  C   C11       1.0  0.35285733269797315  0.9455514520217917  0.7437484902706202  1.0000
  C   C12       1.0  0.44087799117146265  0.9590151091492258  0.7397336237805097  1.0000
  O   O1        1.0  0.6066836882869502  0.201808005584178  0.6683203426065154  1.0000
  H   H1        1.0  0.7711991247966434  0.020452537995347075  0.7213082443608678  1.0000
  H   H2        1.0  0.6232774188987502  0.9039436154281397  0.7555582611444536  1.0000
  H   H3        1.0  0.4499937942619067  0.2716718906551425  0.6477256815741963  1.0000
  H   H4        1.0  0.2319257514693855  0.03713322167044675  0.7168750369732073  1.0000
  H   H5        1.0  0.3255226619634567  0.8547260578528078  0.7704940787071917  1.0000
  H   H6        1.0  0.4799654261308087  0.8771887726208372  0.7637942028438867  1.0000
  C   C13       1.0  0.017423721881585585  0.9929257504194481  0.6216511354926282  1.0000
  C   C14       1.0  0.054620518299144605  0.9180521738867733  0.7212125425167977  1.0000
  C   C15       1.0  0.05462050534466645  0.7871699358364621  0.7212124852246811  1.0000
  C   C16       1.0  0.017423707655429777  0.7284161545140766  0.6216511895862038  1.0000
  C   C17       1.0  0.9802577028693106  0.8032780329983362  0.5221720576835545  1.0000
  C   C18       1.0  0.9802577157813628  0.934170290972108  0.5221721085471658  1.0000
  H   H7        1.0  0.9798074636932612  0.2997862395139883  0.5209681134167736  1.0000
  H   H8        1.0  0.08377717244529204  0.9605453653359285  0.7992534334954116  1.0000
  H   H9        1.0  0.08377706826876485  0.7320413377493074  0.799253411070818  1.0000
  H   H10       1.0  0.9510972471004532  0.7608304214265414  0.44412097699084185  1.0000
  H   H11       1.0  0.9510972248901232  0.9892548606755793  0.44412096674334256  1.0000
  H   H12       1.0  0.9798077756560905  0.43785688560259856  0.5209677755688964  1.0000
  C   C19       1.0  0.017423728280491657  0.36067091996027223  0.25390593435680975  1.0000
  C   C20       1.0  0.9567759966220988  0.2916097243368778  0.1923066163305336  1.0000
  C   C21       1.0  0.956775943719644  0.2916098051482965  0.061424476223405966  1.0000
  C   C22       1.0  0.017423661669905055  0.36067098199341463  0.9893963698389512  1.0000
  C   C23       1.0  0.07802133644351028  0.42967494461181555  0.05099496156816552  1.0000
  C   C24       1.0  0.07802132560271624  0.42967492529807183  0.18188726019960244  1.0000
  H   H13       1.0  0.07875466165410439  0.4305107703093056  0.5473424991642033  1.0000
  H   H14       1.0  0.9092374414532877  0.2374762951976117  0.2452048434103331  1.0000
  H   H15       1.0  0.9092374237570531  0.23747635431720826  0.016700814133210784  1.0000
  H   H16       1.0  0.12556609954683973  0.4838155076898982  0.9981410879564971  1.0000
  H   H17       1.0  0.12556605685550193  0.48381546420308785  0.2265654553164298  1.0000
  H   H18       1.0  0.07875492610594481  0.43051033143899264  0.6854134742217624  1.0000
  Zn  Zn1       1.0  0.9245796349144493  0.3615717552082449  0.6213822875751833  1.0000
  Zn  Zn2       1.0  0.11025967133547776  0.35976959479694637  0.6219194373413821  1.0000
  C   C25       1.0  0.01742180659435788  0.3556820422383624  0.8503729389601418  1.0000
  C   C26       1.0  0.01741952727573448  0.3656608681907825  0.3929289147351489  1.0000
  C   C27       1.0  0.017419340834890606  0.5893928288562322  0.6166608675999796  1.0000
  C   C28       1.0  0.017421929675630166  0.13194857760463918  0.6266410526771211  1.0000
  O   O2        1.0  0.0878827235224815  0.3666461665022769  0.4397901424772259  1.0000
  O   O3        1.0  0.087885461647635  0.35332800113781215  0.8039190349706533  1.0000
  O   O4        1.0  0.08788252061902013  0.5420524262275435  0.6151948810477619  1.0000
  O   O5        1.0  0.08788560119108246  0.1779217509859592  0.6285142023206842  1.0000
  O   O6        1.0  0.9469536416953613  0.5434195996355844  0.6147875224059918  1.0000
  O   O7        1.0  0.9469565827200643  0.3546966791304784  0.8035116095571837  1.0000
  O   O8        1.0  0.9469538446513427  0.3680148008544799  0.43938121144133224  1.0000
  O   O9        1.0  0.9469567223164743  0.1792903763811009  0.6281053651743338  1.0000
