data_image0
_chemical_formula_structural       NC9NC3OH6C6NH7C9H8Zn2C4O8
_chemical_formula_sum              "N3 C31 O9 H21 Zn2"
_cell_length_a       15.78231758774541
_cell_length_b       9.274771166103582
_cell_length_c       9.275155815604963
_cell_angle_alpha    85.94411296578332
_cell_angle_beta     90.4446892459172
_cell_angle_gamma    90.23039320205511

_space_group_name_H-M_alt    "P 1"
_space_group_IT_number       1

loop_
  _space_group_symop_operation_xyz
  'x, y, z'

loop_
  _atom_site_type_symbol
  _atom_site_label
  _atom_site_symmetry_multiplicity
  _atom_site_fract_x
  _atom_site_fract_y
  _atom_site_fract_z
  _atom_site_occupancy
  N   N1        1.0  0.8015819505692234  0.5560194142867783  0.41009022714833976  1.0000
  C   C1        1.0  0.7525911981292822  0.4651060674696794  0.4369787212058278  1.0000
  C   C2        1.0  0.6917674953577497  0.352260508916858  0.4703542669916865  1.0000
  C   C3        1.0  0.7107145287823395  0.21050754706086594  0.512191204929261  1.0000
  C   C4        1.0  0.6336374713948443  0.14180922201334978  0.5325497568962894  1.0000
  C   C5        1.0  0.5723865809889589  0.24672303003067952  0.5016314459284157  1.0000
  C   C6        1.0  0.4791980338091053  0.22732694350208238  0.5074496078563271  1.0000
  C   C7        1.0  0.4260528022488427  0.34625832475035345  0.4722166807748107  1.0000
  C   C8        1.0  0.33776634450218423  0.3303540669375107  0.4769953807478191  1.0000
  C   C9        1.0  0.2839420350178495  0.4527457399577415  0.4407281817929358  1.0000
  N   N2        1.0  0.24068009999701562  0.5511328421424442  0.41157260407234464  1.0000
  C   C10       1.0  0.3019429466638295  0.1953414345324458  0.5170617019892352  1.0000
  C   C11       1.0  0.35415850396495224  0.07665598202760737  0.5522266213284897  1.0000
  C   C12       1.0  0.44225709724855766  0.09212331226556181  0.5475777884070314  1.0000
  O   O1        1.0  0.6094724381395804  0.37105860267525537  0.4648810719972738  1.0000
  H   H1        1.0  0.7729334149543292  0.16270287919546278  0.5262436901780072  1.0000
  H   H2        1.0  0.6243351823548858  0.02885013370604983  0.5659054108960888  1.0000
  H   H3        1.0  0.4531879759310836  0.4513220475430062  0.4410327386560209  1.0000
  H   H4        1.0  0.23375891492063114  0.18187133445754888  0.5211066569727267  1.0000
  H   H5        1.0  0.3262966376719513  0.9723105333998648  0.5831978439258574  1.0000
  H   H6        1.0  0.4808694216115408  0.9981161541482468  0.5754400363904686  1.0000
  C   C13       1.0  0.018536760468598867  0.1300152259730134  0.41160820945373233  1.0000
  C   C14       1.0  0.9985603530211137  0.2124359632423225  0.2826580935511902  1.0000
  C   C15       1.0  0.9864916026336953  0.14640351769523763  0.15291696848583447  1.0000
  C   C16       1.0  0.9944401831285006  0.9965643132533032  0.15118666549281712  1.0000
  C   C17       1.0  0.012843244937061682  0.9128264044296328  0.2783609987538289  1.0000
  C   C18       1.0  0.0237333653012739  0.9771260064049355  0.4100671441618289  1.0000
  N   N3        1.0  0.9670304862886956  0.23190581537469912  0.022552096856911064  1.0000
  H   H7        1.0  0.11506415506748313  0.21131863031462306  0.7273496397889543  1.0000
  H   H8        1.0  0.9942862202242931  0.3290714670542354  0.2820900503093462  1.0000
  H   H9        1.0  0.9855555095174054  0.9443162624914414  0.05136531315212811  1.0000
  H   H10       1.0  0.016561838337106227  0.7965854471805454  0.2742459604700249  1.0000
  H   H11       1.0  0.08532235959944345  0.6812230231659815  0.6248693240259009  1.0000
  H   H12       1.0  0.9611926814307006  0.34404427992349884  0.022485578318340638  1.0000
  H   H13       1.0  0.9582343954557846  0.1836944054873051  0.9251012070610565  1.0000
  C   C19       1.0  0.019560283038315474  0.54994205139604  0.987607818632787  1.0000
  C   C20       1.0  0.9537096499543657  0.6209607171238583  0.05507106935033268  1.0000
  C   C21       1.0  0.8935929128615531  0.7015022015280359  0.9734363992300405  1.0000
  C   C22       1.0  0.8982131173169811  0.7127099561286203  0.8228494842620351  1.0000
  C   C23       1.0  0.9623539816860827  0.6409353107853426  0.7536735225983984  1.0000
  C   C24       1.0  0.02270981220696755  0.5571990992327498  0.8340674605271028  1.0000
  C   C25       1.0  0.8364043762521607  0.7966402641685546  0.7388902834818634  1.0000
  C   C26       1.0  0.7846507125673268  0.8669204051295272  0.6685592780597145  1.0000
  C   C27       1.0  0.7218569525272086  0.9521934669343515  0.58321301991404  1.0000
  H   H14       1.0  0.21550762001087764  0.4313814986559106  0.10144128773046668  1.0000
  H   H15       1.0  0.9498785689556335  0.6170048256542879  0.1718570306371947  1.0000
  H   H16       1.0  0.8439261912570218  0.7562712722876221  0.027982009923278595  1.0000
  H   H17       1.0  0.9639610684343376  0.6477003250151936  0.6365201727427521  1.0000
  H   H18       1.0  0.15341746405921985  0.4722105446359759  0.5610800195547867  1.0000
  H   H19       1.0  0.7390997228751934  0.9561460349593056  0.467264617108329  1.0000
  H   H20       1.0  0.6584382986785577  0.9015334044883547  0.5981197089011632  1.0000
  H   H21       1.0  0.7203958961376392  0.06359109216850589  0.6195078921195059  1.0000
  Zn  Zn1       1.0  0.9282961951146934  0.5546054736582757  0.4105263321028554  1.0000
  Zn  Zn2       1.0  0.11396579858054934  0.552535111658234  0.41114830215264875  1.0000
  C   C28       1.0  0.02207735749794071  0.550081359941335  0.6740789456286749  1.0000
  C   C29       1.0  0.020186675394129994  0.5570610238847078  0.14759583356567907  1.0000
  C   C30       1.0  0.02272535515071694  0.8169548153431836  0.40461517474683206  1.0000
  C   C31       1.0  0.019538604040598262  0.2901858369245147  0.41705968422648976  1.0000
  O   O2        1.0  0.09085750667928649  0.5586582319357094  0.20152531872585744  1.0000
  O   O3        1.0  0.09232545092246247  0.5469117033680737  0.6206211084432018  1.0000
  O   O4        1.0  0.09284777295498547  0.7624154171202919  0.4030272010449254  1.0000
  O   O5        1.0  0.09033512095151486  0.3431545282815187  0.4191191178301368  1.0000
  O   O6        1.0  0.9519268093837858  0.7639860577430087  0.40255551620553587  1.0000
  O   O7        1.0  0.9514044976920765  0.5484840762571532  0.6201493436050132  1.0000
  O   O8        1.0  0.9499365467494776  0.5602305397053975  0.20105182119159148  1.0000
  O   O9        1.0  0.949414161357013  0.34472682666119714  0.41864572837003733  1.0000
