data_image0
_chemical_formula_structural       NC9NC3OH6C8H10C8H10Zn2C4O8
_chemical_formula_sum              "N2 C32 O9 H26 Zn2"
_cell_length_a       15.78231758774541
_cell_length_b       9.275653711864159
_cell_length_c       9.275657083861812
_cell_angle_alpha    86.03202775307278
_cell_angle_beta     89.58874472212382
_cell_angle_gamma    89.08352321082864

_space_group_name_H-M_alt    "P 1"
_space_group_IT_number       1

loop_
  _space_group_symop_operation_xyz
  'x, y, z'

loop_
  _atom_site_type_symbol
  _atom_site_label
  _atom_site_symmetry_multiplicity
  _atom_site_fract_x
  _atom_site_fract_y
  _atom_site_fract_z
  _atom_site_occupancy
  N   N1        1.0  0.7971591973786267  0.5608726063629594  0.4175880804702936  1.0000
  C   C1        1.0  0.7490043087340981  0.46989866981718054  0.44402732358048813  1.0000
  C   C2        1.0  0.6892181126667857  0.35697790336884117  0.47684523982290994  1.0000
  C   C3        1.0  0.709469201590498  0.21513076622043847  0.5179816865020141  1.0000
  C   C4        1.0  0.6330234083754493  0.14638652042497924  0.5380007705315704  1.0000
  C   C5        1.0  0.5708069622367046  0.2513698740541124  0.5076009129819734  1.0000
  C   C6        1.0  0.47779603031338014  0.2319605852993809  0.5133232423965153  1.0000
  C   C7        1.0  0.4235578410927047  0.35097142441242557  0.47867800840336816  1.0000
  C   C8        1.0  0.3354169532725513  0.3350563142238412  0.48337812969841965  1.0000
  C   C9        1.0  0.2804679669463516  0.4575297879171114  0.4477157211261409  1.0000
  N   N2        1.0  0.2363019494927196  0.5559826521200504  0.4190463165415337  1.0000
  C   C10       1.0  0.30083368977994773  0.19995324569275286  0.5227773049530573  1.0000
  C   C11       1.0  0.3541399022909585  0.08118848325228822  0.5573557472684514  1.0000
  C   C12       1.0  0.44209693717879345  0.09666637250594445  0.5527833340432449  1.0000
  O   O1        1.0  0.6067494674851319  0.3757882329534965  0.4714649508038413  1.0000
  H   H1        1.0  0.7721283614567507  0.1672945298551447  0.5317979289996886  1.0000
  H   H2        1.0  0.6247601376260701  0.03335232918079112  0.5707982249248413  1.0000
  H   H3        1.0  0.44972801673112006  0.45610554026211214  0.44801322304562397  1.0000
  H   H4        1.0  0.232772969045729  0.18647396218345036  0.5267557073801643  1.0000
  H   H5        1.0  0.3272364326541893  0.9767731212216589  0.5878113624295274  1.0000
  H   H6        1.0  0.4815730562528641  0.0025963643808470938  0.5801810528639597  1.0000
  C   C13       1.0  0.019119728005841274  0.13500499227490126  0.4169798763970525  1.0000
  C   C14       1.0  0.9998924267450477  0.2179649534145207  0.28834905889136664  1.0000
  C   C15       1.0  0.9729963724200035  0.15240599133033972  0.16527182608309032  1.0000
  C   C16       1.0  0.9665930551021562  0.0019072238116784046  0.16985671999387297  1.0000
  C   C17       1.0  0.9867490260529717  0.9177351927334025  0.2957124810021965  1.0000
  C   C18       1.0  0.014349494023526033  0.9818391306526139  0.4196669307037981  1.0000
  C   C19       1.0  0.953853902718396  0.24270207336377658  0.02785420519411219  1.0000
  C   C20       1.0  0.033593711399394266  0.26317681445813434  0.9353519286921603  1.0000
  H   H7        1.0  0.09501400602018362  0.3997296429771082  0.6170400321948202  1.0000
  H   H8        1.0  0.003969567505435201  0.3347183001547689  0.2844788544978658  1.0000
  H   H9        1.0  0.9467870580639842  0.9494014521080341  0.07523416335442024  1.0000
  H   H10       1.0  0.9828350593557278  0.801303139495058  0.29481953561852725  1.0000
  H   H11       1.0  0.02110409373399591  0.6838772175941846  0.6574094697371216  1.0000
  H   H12       1.0  0.9047765285655589  0.19004632801768895  0.9650059798607535  1.0000
  H   H13       1.0  0.9280069374526234  0.3502844654777155  0.05331949534975533  1.0000
  H   H14       1.0  0.08266886649681426  0.31913238005840516  0.9950304136403703  1.0000
  H   H15       1.0  0.05917994674695071  0.15683311069860895  0.905773817924731  1.0000
  H   H16       1.0  0.018128642914314375  0.3298914868832241  0.8346866734577745  1.0000
  C   C21       1.0  0.01890529342640712  0.5562244255831172  0.9950038086720228  1.0000
  C   C22       1.0  0.0621803444370137  0.665650361318634  0.060438711733691974  1.0000
  C   C23       1.0  0.0979384713293241  0.7813309237235071  0.9771893853314477  1.0000
  C   C24       1.0  0.0916847060164716  0.7865878375813844  0.826546290309047  1.0000
  C   C25       1.0  0.05023620350450608  0.677787094356828  0.7596669091597286  1.0000
  C   C26       1.0  0.014563932883859376  0.5606197166773672  0.8416430546766174  1.0000
  C   C27       1.0  0.1450989591783649  0.896425295940509  0.048914940054085365  1.0000
  C   C28       1.0  0.2384058796167252  0.8542443018831294  0.06693806334993169  1.0000
  H   H17       1.0  0.9821653111120563  0.3266225705769561  0.29197467197464766  1.0000
  H   H18       1.0  0.06657662448657953  0.6629283551518663  0.1771698035610152  1.0000
  H   H19       1.0  0.11975527873815284  0.8743974345652774  0.7605345542127941  1.0000
  H   H20       1.0  0.048023980963926016  0.6834305070568572  0.6427031780063412  1.0000
  H   H21       1.0  0.9154512353139045  0.39555481885598276  0.5729491400832565  1.0000
  H   H22       1.0  0.13986870770087179  0.0011538501988752614  0.9833913696257217  1.0000
  H   H23       1.0  0.11682341665191665  0.9130692675865693  0.15674966547684543  1.0000
  H   H24       1.0  0.2450159644820753  0.7516029853801856  0.13538080372994532  1.0000
  H   H25       1.0  0.2683003699048039  0.8406418536623037  0.9598201615251187  1.0000
  H   H26       1.0  0.27199474172766  0.9404198898471343  0.11989247133242986  1.0000
  Zn  Zn1       1.0  0.9238862850322854  0.5594576628763217  0.41801720142971965  1.0000
  Zn  Zn2       1.0  0.10957483921122169  0.5573858885050731  0.4186289423576659  1.0000
  C   C29       1.0  0.015415011589491545  0.5540447639208992  0.6815918526074736  1.0000
  C   C30       1.0  0.018048129393541723  0.5628005848821809  0.15505444512074362  1.0000
  C   C31       1.0  0.015276270961638083  0.8217397072449675  0.4134145868078922  1.0000
  C   C32       1.0  0.018186816023167074  0.29510391030624117  0.4232317820695497  1.0000
  O   O2        1.0  0.08822833133517616  0.5642150859350064  0.2090010333272423  1.0000
  O   O3        1.0  0.08616813398420176  0.5510567441466669  0.6281091431898016  1.0000
  O   O4        1.0  0.08605514154631821  0.7672238147258199  0.41155410528570924  1.0000
  O   O5        1.0  0.0883412609062697  0.34804802581634253  0.4255559629694077  1.0000
  O   O6        1.0  0.9451197999708771  0.7687955262735771  0.41109018060164293  1.0000
  O   O7        1.0  0.9452327830406283  0.5526301876548203  0.6276451471401763  1.0000
  O   O8        1.0  0.94729298961819  0.5657884701985378  0.20853530396313902  1.0000
  O   O9        1.0  0.9474059186897131  0.3496214003279101  0.4250903416508969  1.0000
