data_image0
_chemical_formula_structural       NC9NC3OH6C6FH5C6SCH8Zn2C4O8
_chemical_formula_sum              "N2 C29 O9 H19 F1 S1 Zn2"
_cell_length_a       15.78231758774541
_cell_length_b       9.275642734913903
_cell_length_c       10.302812801239593
_cell_angle_alpha    85.47815978286455
_cell_angle_beta     90.08384720459999
_cell_angle_gamma    90.2347076146716

_space_group_name_H-M_alt    "P 1"
_space_group_IT_number       1

loop_
  _space_group_symop_operation_xyz
  'x, y, z'

loop_
  _atom_site_type_symbol
  _atom_site_label
  _atom_site_symmetry_multiplicity
  _atom_site_fract_x
  _atom_site_fract_y
  _atom_site_fract_z
  _atom_site_occupancy
  N   N1        1.0  0.80756772938043  0.569454852113747  0.568351789711097  1.0000
  C   C1        1.0  0.7584728701117843  0.4783223365880138  0.5925409768596921  1.0000
  C   C2        1.0  0.6975199440136101  0.3652047330604544  0.6225659880774661  1.0000
  C   C3        1.0  0.7163049800243965  0.2231107944232238  0.6602028561336635  1.0000
  C   C4        1.0  0.6391491045027623  0.15424650936027406  0.6785176831880608  1.0000
  C   C5        1.0  0.5780179402639454  0.2594122864577453  0.650703360471725  1.0000
  C   C6        1.0  0.48480687861305555  0.23996874158420933  0.6559375407318879  1.0000
  C   C7        1.0  0.43179805313997355  0.35918733156832583  0.6242415401943573  1.0000
  C   C8        1.0  0.34349310449798337  0.3432440909196992  0.6285406009465213  1.0000
  C   C9        1.0  0.28980920395888426  0.46593140762387697  0.595914145019967  1.0000
  N   N2        1.0  0.24666014493147903  0.5645561814376079  0.569685396707728  1.0000
  C   C10       1.0  0.3075145982654526  0.2079048201405942  0.6645848685323781  1.0000
  C   C11       1.0  0.3595940135032804  0.08893271124015678  0.6962196941921976  1.0000
  C   C12       1.0  0.44771059495973003  0.1044379654943548  0.6920374640437545  1.0000
  O   O1        1.0  0.6152460909254897  0.38404740249255664  0.6176423444460013  1.0000
  H   H1        1.0  0.7784694448317554  0.17519162076593142  0.6728445247060573  1.0000
  H   H2        1.0  0.6297176611054899  0.04101556074819346  0.7085247357444426  1.0000
  H   H3        1.0  0.45905394815285716  0.4645052818574953  0.5961879887441093  1.0000
  H   H4        1.0  0.23931491445963982  0.19440172382495557  0.6682238276758743  1.0000
  H   H5        1.0  0.3316122494441411  0.984334769116688  0.7240818804665936  1.0000
  H   H6        1.0  0.48621505115448094  0.010203676830450314  0.7171027210781526  1.0000
  C   C13       1.0  0.024497926963891414  0.14349074431916642  0.5695688792787652  1.0000
  C   C14       1.0  0.008098247221068  0.22698655930860867  0.45223353911236375  1.0000
  C   C15       1.0  0.9996907501922201  0.1618033334571538  0.3353229663846047  1.0000
  C   C16       1.0  0.007619560241381995  0.012424115006338221  0.3336817918082864  1.0000
  C   C17       1.0  0.022487909703352127  0.9273558958030205  0.4491963334408411  1.0000
  C   C18       1.0  0.029737982074534708  0.9905091168884027  0.5684795387724049  1.0000
  F   F1        1.0  0.984818833830292  0.24406871312588718  0.2229786436269099  1.0000
  H   H7        1.0  0.11205037903029269  0.22165979206654018  0.8598262086313526  1.0000
  H   H8        1.0  0.0037721975742128766  0.3436602010612495  0.4505588412835655  1.0000
  H   H9        1.0  0.0014332947148707476  0.9620317883464001  0.2428642349712502  1.0000
  H   H10       1.0  0.026314144193779088  0.8111532840970909  0.4456398320684838  1.0000
  H   H11       1.0  0.08529958912171898  0.6924650095234478  0.7655398438699057  1.0000
  C   C19       1.0  0.027117970260831514  0.5669999410719357  0.1877757574074015  1.0000
  C   C20       1.0  0.9994342235387215  0.7111414930760471  0.1763067293192635  1.0000
  C   C21       1.0  0.9854399180739587  0.7826514993879168  0.05362412796452021  1.0000
  C   C22       1.0  0.999434146219466  0.7111413425352011  0.9411555595927332  1.0000
  C   C23       1.0  0.027117915244331492  0.5669999319659174  0.9502726608825292  1.0000
  C   C24       1.0  0.04079832744596068  0.4956212359771044  0.0741212939680771  1.0000
  S   S1        1.0  0.9502445075717353  0.9669184883429482  0.040465994365125324  1.0000
  C   C25       1.0  0.8384853668314398  0.917773196068383  0.043704452039736275  1.0000
  H   H12       1.0  0.03751903819219815  0.512661839406714  0.5194121718067448  1.0000
  H   H13       1.0  0.988437084948875  0.7683949408100335  0.2623178380409803  1.0000
  H   H14       1.0  0.9884369140338821  0.7683947349514579  0.8469675248108768  1.0000
  H   H15       1.0  0.062136605233207076  0.38442907846333063  0.08206141041832837  1.0000
  H   H16       1.0  0.0375174559777236  0.5126611082554711  0.6263965824642943  1.0000
  H   H17       1.0  0.8230644434919507  0.8537822534005066  0.9600950121772667  1.0000
  H   H18       1.0  0.8230648153857415  0.8537837068756966  0.1363297034383908  1.0000
  H   H19       1.0  0.7998880664697838  0.017755960319912667  0.036520829185747505  1.0000
  Zn  Zn1       1.0  0.9342802881123327  0.5680373492334276  0.5687441359369219  1.0000
  Zn  Zn2       1.0  0.11994748488654605  0.5659619134792864  0.5693036785859813  1.0000
  C   C26       1.0  0.027080493786443505  0.5612545170548093  0.8061518157754424  1.0000
  C   C27       1.0  0.02714931794996356  0.572746542700812  0.33189612994357387  1.0000
  C   C28       1.0  0.02874312368324472  0.8304046669714327  0.5635119108108748  1.0000
  C   C29       1.0  0.02548661397844687  0.3035946607577513  0.5745361061623844  1.0000
  O   O2        1.0  0.09761953315953376  0.5738812457773796  0.3804765951335898  1.0000
  O   O3        1.0  0.09752737815121248  0.5585435182696397  0.7579956581804039  1.0000
  O   O4        1.0  0.0988690229887037  0.7758856788129602  0.5620622134128286  1.0000
  O   O5        1.0  0.09627782503023674  0.35653909625916924  0.5764099423530509  1.0000
  O   O6        1.0  0.9579498846095491  0.7774601671633585  0.5616378719720774  1.0000
  O   O7        1.0  0.9566082504876813  0.5601197393562902  0.757571245287634  1.0000
  O   O8        1.0  0.9567004052415429  0.5754574166061439  0.3800506213981034  1.0000
  O   O9        1.0  0.9553586970449595  0.35811525677263756  0.5759840659679039  1.0000
