data_image0
_chemical_formula_structural       NC9NC3OH6C6FH5C8H10Zn2C4O8
_chemical_formula_sum              "N2 C30 O9 H21 F1 Zn2"
_cell_length_a       15.78231758774541
_cell_length_b       9.275642734913903
_cell_length_c       9.275657083861812
_cell_angle_alpha    85.77689565722392
_cell_angle_beta     89.58874472212382
_cell_angle_gamma    90.2347076146716

_space_group_name_H-M_alt    "P 1"
_space_group_IT_number       1

loop_
  _space_group_symop_operation_xyz
  'x, y, z'

loop_
  _atom_site_type_symbol
  _atom_site_label
  _atom_site_symmetry_multiplicity
  _atom_site_fract_x
  _atom_site_fract_y
  _atom_site_fract_z
  _atom_site_occupancy
  N   N1        1.0  0.8156212625912623  0.561200551848611  0.41040595027086635  1.0000
  C   C1        1.0  0.7663903304936606  0.4702075013202558  0.4372637968304147  1.0000
  C   C2        1.0  0.7052685029689624  0.35726300977389003  0.4706013016949606  1.0000
  C   C3        1.0  0.7238418181361338  0.2153860699829837  0.5123904375193951  1.0000
  C   C4        1.0  0.6465829151620337  0.14662738075057669  0.5327258382821374  1.0000
  C   C5        1.0  0.5856082164362689  0.25163279179602394  0.5018429149708228  1.0000
  C   C6        1.0  0.4923677106494146  0.232219425073237  0.5076545534284895  1.0000
  C   C7        1.0  0.43953718651540824  0.3512552688325752  0.4724617082221221  1.0000
  C   C8        1.0  0.35120805411913114  0.33533681481662203  0.4772350606015341  1.0000
  C   C9        1.0  0.2977076890634474  0.45783602066935614  0.4410091080023728  1.0000
  N   N2        1.0  0.2547061761259917  0.5563095702070451  0.41188668676135776  1.0000
  C   C10       1.0  0.3150267859902234  0.20020536059842398  0.5172558931423443  1.0000
  C   C11       1.0  0.366928244019542  0.08141564521334499  0.5523808143846378  1.0000
  C   C12       1.0  0.4550683520163482  0.0968967864325283  0.5477371818841497  1.0000
  O   O1        1.0  0.6230223471372065  0.376077291482918  0.46513445965701017  1.0000
  H   H1        1.0  0.7859351690364891  0.16753978303591754  0.5264267915600778  1.0000
  H   H2        1.0  0.6369826713621312  0.03356944057736566  0.5660434032053727  1.0000
  H   H3        1.0  0.46695089278853213  0.4564114737743121  0.4413131633920446  1.0000
  H   H4        1.0  0.24680663173775733  0.1867232450385372  0.5212963185486261  1.0000
  H   H5        1.0  0.3387897451977182  0.9769783451036749  0.5833168817760028  1.0000
  H   H6        1.0  0.49343180717570945  0.002807013828014737  0.5755677502810956  1.0000
  C   C13       1.0  0.03254461361061467  0.1352434612965825  0.4117573146080329  1.0000
  C   C14       1.0  0.016804987121127546  0.2180627685221166  0.2814770144539773  1.0000
  C   C15       1.0  0.009055153876855737  0.1522054839427367  0.1516683439838975  1.0000
  C   C16       1.0  0.01699319611997474  0.0028168031479995914  0.1498461076814781  1.0000
  C   C17       1.0  0.031211734971568594  0.9184145937261153  0.27810473065649166  1.0000
  C   C18       1.0  0.03779079665120766  0.9822555531723034  0.41054779318049595  1.0000
  F   F1        1.0  0.9948152145103064  0.2338231320203843  0.026929692621742385  1.0000
  H   H7        1.0  0.11846426438908186  0.21508601454161558  0.7340371318936179  1.0000
  H   H8        1.0  0.012488358248513798  0.3347267546494208  0.2796175564637946  1.0000
  H   H9        1.0  0.011317811831505376  0.9519008594583388  0.049009151422539254  1.0000
  H   H10       1.0  0.03505797605419514  0.8021914766823454  0.2741558601317893  1.0000
  H   H11       1.0  0.09224386900374193  0.6853476152356509  0.6293486732916673  1.0000
  C   C19       1.0  0.0373123797661179  0.5565513944676694  0.9878430664061244  1.0000
  C   C20       1.0  0.08188172523308612  0.6660003210235079  0.052774461805193296  1.0000
  C   C21       1.0  0.11900812656255844  0.7817051883704136  0.9689928479777294  1.0000
  C   C22       1.0  0.1128165402424477  0.786963206726609  0.8183255640243297  1.0000
  C   C23       1.0  0.07008113807678451  0.678139604037141  0.751946813804433  1.0000
  C   C24       1.0  0.03302300690692106  0.5609476090298986  0.8344620881126086  1.0000
  C   C25       1.0  0.16752995536717497  0.8968237423685794  0.040188812544762476  1.0000
  C   C26       1.0  0.26033795727762565  0.8546338859181226  0.05840602560169961  1.0000
  H   H12       1.0  0.9978566572928418  0.3269012992069613  0.28587040953289455  1.0000
  H   H13       1.0  0.08624580928205905  0.6632777429525174  0.16951807855134304  1.0000
  H   H14       1.0  0.14192572847906804  0.8747912528528663  0.7519097847308771  1.0000
  H   H15       1.0  0.06793566605310386  0.6837842024404179  0.6349571153013631  1.0000
  H   H16       1.0  0.9319579149548284  0.39584803042299854  0.5665276958420011  1.0000
  H   H17       1.0  0.16353843752525288  0.0015743005089072781  0.9741833487772404  1.0000
  H   H18       1.0  0.1394512784200661  0.9134712109786729  0.14794695313227701  1.0000
  H   H19       1.0  0.2657339964411911  0.7519710040700951  0.12732105519734693  1.0000
  H   H20       1.0  0.2900715572501973  0.841028579769322  0.9513507134807191  1.0000
  H   H21       1.0  0.29494610777778796  0.9408275797127579  0.11096390904385589  1.0000
  Zn  Zn1       1.0  0.9423316142353224  0.5597853110767705  0.4108415818886919  1.0000
  Zn  Zn2       1.0  0.12799566338201473  0.5577131014175618  0.4114628557876303  1.0000
  C   C27       1.0  0.03379631680165529  0.5543712748499463  0.6744411397403769  1.0000
  C   C28       1.0  0.03653299881518546  0.5631289354437172  0.1478634436062003  1.0000
  C   C29       1.0  0.03682388294387029  0.8221224619365335  0.405032114264289  1.0000
  C   C30       1.0  0.03350535819742406  0.29537601674151537  0.41727254819761916  1.0000
  O   O2        1.0  0.10672993153329347  0.5645437336887877  0.20180352319009476  1.0000
  O   O3        1.0  0.10451409677591128  0.5513826272809843  0.6209721792647838  1.0000
  O   O4        1.0  0.10695793731567638  0.7675951154135336  0.4034224797596102  1.0000
  O   O5        1.0  0.10428602825046562  0.3483312560189269  0.4193531143852085  1.0000
  O   O6        1.0  0.9660411860088916  0.7691671571840804  0.40295132307151915  1.0000
  O   O7        1.0  0.9635973565866929  0.5529564013758197  0.6205009432417672  1.0000
  O   O8        1.0  0.965813199869914  0.5661174485265537  0.2013305541252055  1.0000
  O   O9        1.0  0.9633692959721692  0.349904961102679  0.4188802534107843  1.0000
