data_image0
_chemical_formula_structural       NC9NC3OH6C6NH7C6OCH8Zn2C4O8
_chemical_formula_sum              "N3 C29 O10 H21 Zn2"
_cell_length_a       15.78231758774541
_cell_length_b       9.274771166103582
_cell_length_c       9.273891588657152
_cell_angle_alpha    85.9746933081572
_cell_angle_beta     89.76748324947235
_cell_angle_gamma    90.23039320205511

_space_group_name_H-M_alt    "P 1"
_space_group_IT_number       1

loop_
  _space_group_symop_operation_xyz
  'x, y, z'

loop_
  _atom_site_type_symbol
  _atom_site_label
  _atom_site_symmetry_multiplicity
  _atom_site_fract_x
  _atom_site_fract_y
  _atom_site_fract_z
  _atom_site_occupancy
  N   N1        1.0  0.8126236817886793  0.5552421756986881  0.4099630556437137  1.0000
  C   C1        1.0  0.7634461920071927  0.4643419735112495  0.4368537004208872  1.0000
  C   C2        1.0  0.7023907001038726  0.35151273082900536  0.47023191580375534  1.0000
  C   C3        1.0  0.7210471810508062  0.2097802212547264  0.5120722001364759  1.0000
  C   C4        1.0  0.64382873598039  0.1410918486286976  0.5324323805152102  1.0000
  C   C5        1.0  0.5827925695074573  0.24599054201199388  0.5015115964962278  1.0000
  C   C6        1.0  0.4895636158961846  0.22659729973282472  0.507330223799231  1.0000
  C   C7        1.0  0.436663072756329  0.34551145711659315  0.47209447855505804  1.0000
  C   C8        1.0  0.34834342751590125  0.329609535404882  0.4768735607601131  1.0000
  C   C9        1.0  0.29477098934513424  0.4519834789495223  0.44060346091466407  1.0000
  N   N2        1.0  0.2517115362878908  0.5503563282247521  0.41144555113803394  1.0000
  C   C10       1.0  0.3122417739188523  0.19461648970309042  0.5169430867710347  1.0000
  C   C11       1.0  0.3642131151051188  0.07594822781669053  0.5521108188332362  1.0000
  C   C12       1.0  0.45234399397151603  0.0914132854399361  0.547461614067358  1.0000
  O   O1        1.0  0.6201336535634613  0.37030814897748887  0.46475828302698896  1.0000
  H   H1        1.0  0.7831684744110959  0.16198242304568966  0.5261258093959826  1.0000
  H   H2        1.0  0.6342947959546938  0.02814906646773485  0.5657907025209423  1.0000
  H   H3        1.0  0.4640148151477623  0.4505599354195542  0.44090804213822254  1.0000
  H   H4        1.0  0.24402965045215802  0.18114836703292014  0.5209883652967926  1.0000
  H   H5        1.0  0.336136157414293  0.9716179196892043  0.5830845187139349  1.0000
  H   H6        1.0  0.49076281838962416  0.9974197479787447  0.5753260906577635  1.0000
  C   C13       1.0  0.029567949484403444  0.12923872946126225  0.4114811593673757  1.0000
  C   C14       1.0  0.010487085007233832  0.21159642855838712  0.2825207291812555  1.0000
  C   C15       1.0  0.9993193710531675  0.14550055814871943  0.15276922656217407  1.0000
  C   C16       1.0  0.0072799682931383725  0.9956605078359826  0.15103878516807345  1.0000
  C   C17       1.0  0.024799819727212347  0.9119847690806472  0.2782232906738171  1.0000
  C   C18       1.0  0.034775256829281176  0.9763487565325649  0.4099399708108724  1.0000
  N   N3        1.0  0.980763622986019  0.2309391260426974  0.022393927488147725  1.0000
  H   H7        1.0  0.12390255800942485  0.21069648622444093  0.7272478447915682  1.0000
  H   H8        1.0  0.006216897202075522  0.328231654678361  0.2819526405035542  1.0000
  H   H9        1.0  0.9990885419098604  0.9433636587031191  0.051209448455070916  1.0000
  H   H10       1.0  0.028546991570803648  0.7957418001661181  0.27410792324202005  1.0000
  H   H11       1.0  0.09487247594881376  0.680550780851805  0.6247593319747116  1.0000
  H   H12       1.0  0.974926280091235  0.3430775580734411  0.022327403628984666  1.0000
  H   H13       1.0  0.9726443168050398  0.18268007660160923  0.9249352429252609  1.0000
  C   C19       1.0  0.03353610352461667  0.5489582793075622  0.9874468541894115  1.0000
  C   C20       1.0  0.10329535036965054  0.6091083218040239  0.056143976457569966  1.0000
  C   C21       1.0  0.168314932449666  0.6800822716501782  0.9764218312074324  1.0000
  C   C22       1.0  0.16380841619707742  0.6912650303026855  0.8249455189494115  1.0000
  C   C23       1.0  0.09582380598214324  0.6302218313359191  0.7549137975588596  1.0000
  C   C24       1.0  0.03080707084622425  0.5566291161022556  0.8339742223062103  1.0000
  O   O2        1.0  0.23574943880385146  0.7384821820181253  0.05174728008944118  1.0000
  C   C25       1.0  0.3059855939665683  0.8136145941208228  0.9847683636514759  1.0000
  H   H14       1.0  0.8314645558551563  0.4626116553291597  0.09794485805820674  1.0000
  H   H15       1.0  0.106488784573465  0.6040438612850956  0.17309796345729622  1.0000
  H   H16       1.0  0.21295346550209038  0.7457998260721002  0.7600879598868895  1.0000
  H   H17       1.0  0.09518586574817967  0.6376631768002392  0.6378167884150683  1.0000
  H   H18       1.0  0.8960135365445876  0.49276341296570614  0.5581967461041559  1.0000
  H   H19       1.0  0.2838426362891142  0.911473600145277  0.920118415857206  1.0000
  H   H20       1.0  0.3408726698771314  0.7416372346059132  0.9146052098213215  1.0000
  H   H21       1.0  0.3495678741075696  0.8476082142190526  0.06969561386679102  1.0000
  Zn  Zn1       1.0  0.9393348976379469  0.5538284482631635  0.4103991954807893  1.0000
  Zn  Zn2       1.0  0.1250001815969768  0.55175839031756  0.41102121527986313  1.0000
  C   C26       1.0  0.03128571897264676  0.5494331740971972  0.6739728896886588  1.0000
  C   C27       1.0  0.033051398452521585  0.5561554630639143  0.14744766602243597  1.0000
  C   C28       1.0  0.03380510994739816  0.8161749002371734  0.4044875653112845  1.0000
  C   C29       1.0  0.030531933222959662  0.28941200540459366  0.4169330701851599  1.0000
  O   O3        1.0  0.10334769598104021  0.5577790349234901  0.2013814648197083  1.0000
  O   O4        1.0  0.1019050706156246  0.5462373842837951  0.6205107765916187  1.0000
  O   O5        1.0  0.10393855603710733  0.7616347257221558  0.4028994645927326  1.0000
  O   O6        1.0  0.10131414761639768  0.3423817035302168  0.41899266851593464  1.0000
  O   O7        1.0  0.9630208682601107  0.7632051357584173  0.40242774202486853  1.0000
  O   O8        1.0  0.9609873937350233  0.5478095265473115  0.6200389740185566  1.0000
  O   O9        1.0  0.9624300244343809  0.5593511112205745  0.20090792941197577  1.0000
  O   O10       1.0  0.9603964756544827  0.34395377049012454  0.41851924119101347  1.0000
