data_image0
_chemical_formula_structural       NC9NC3OH6C6BrH5C6SCH8Zn2C4O8
_chemical_formula_sum              "N2 C29 O9 H19 Br1 S1 Zn2"
_cell_length_a       15.78231758774541
_cell_length_b       10.302969083221269
_cell_length_c       10.302812801239593
_cell_angle_alpha    85.5606946464392
_cell_angle_beta     90.08384720459999
_cell_angle_gamma    89.63144763104107

_space_group_name_H-M_alt    "P 1"
_space_group_IT_number       1

loop_
  _space_group_symop_operation_xyz
  'x, y, z'

loop_
  _atom_site_type_symbol
  _atom_site_label
  _atom_site_symmetry_multiplicity
  _atom_site_fract_x
  _atom_site_fract_y
  _atom_site_fract_z
  _atom_site_occupancy
  N   N1        1.0  0.7978584038302489  0.41282157297367017  0.5703700730354353  1.0000
  C   C1        1.0  0.7493273296620504  0.33078418033334844  0.5944420658371254  1.0000
  C   C2        1.0  0.6890741979138864  0.22895583507602613  0.6243216103837295  1.0000
  C   C3        1.0  0.7087382883983188  0.10104302406072274  0.6617757488593623  1.0000
  C   C4        1.0  0.6320084370860183  0.03905146857678532  0.6800020180058992  1.0000
  C   C5        1.0  0.5702266719298181  0.1337215882184808  0.6523229360923941  1.0000
  C   C6        1.0  0.4771358964450274  0.11621852999707616  0.6575321123950804  1.0000
  C   C7        1.0  0.42338953328474777  0.22353897671283507  0.6259894242588537  1.0000
  C   C8        1.0  0.33518321641516813  0.20918688859691792  0.6302679823653419  1.0000
  C   C9        1.0  0.28074031914726555  0.3196298793822001  0.5977992995439381  1.0000
  N   N2        1.0  0.2369811246737971  0.40841179489001167  0.5716973804527421  1.0000
  C   C10       1.0  0.30004197736362614  0.08735462233597868  0.6661382067202171  1.0000
  C   C11       1.0  0.3528574054502149  0.9802560576271362  0.6976200369478127  1.0000
  C   C12       1.0  0.4408780647072527  0.9942138708609922  0.6934577462044815  1.0000
  O   O1        1.0  0.6066837759346604  0.2459179858701257  0.6194221979975592  1.0000
  H   H1        1.0  0.7711992019098298  0.057906235378389015  0.6743557944618579  1.0000
  H   H2        1.0  0.623277489240402  0.9371210901960595  0.7098634581319043  1.0000
  H   H3        1.0  0.4499938859711616  0.3183460824983302  0.5980713093027081  1.0000
  H   H4        1.0  0.2319258295435012  0.07519914952898343  0.6697598011882757  1.0000
  H   H5        1.0  0.3255227294360666  0.8860971024194348  0.7253477126422685  1.0000
  H   H6        1.0  0.47996549491071455  0.9093842653716182  0.718401820082107  1.0000
  C   C13       1.0  0.017423799355020586  0.02936914043370642  0.5710393824268398  1.0000
  C   C14       1.0  0.10527072658690906  0.025573166083642018  0.593184818070901  1.0000
  C   C15       1.0  0.1488475307859738  0.9067523078388394  0.6041699777416907  1.0000
  C   C16       1.0  0.10527079311571175  0.7904908058175066  0.5931845719259774  1.0000
  C   C17       1.0  0.01742381238246593  0.7918541576604751  0.5710392963943824  1.0000
  C   C18       1.0  0.9739245594673396  0.911889045958465  0.560073576418977  1.0000
  Br  Br1       1.0  0.26833447362943597  0.9032434845458602  0.6342919339745365  1.0000
  H   H7        1.0  0.984359064647055  0.35809957492700084  0.5627034662782255  1.0000
  H   H8        1.0  0.14024092721619552  0.11454555383399656  0.6020006401464526  1.0000
  H   H9        1.0  0.14024102692087714  0.6994646186959391  0.6020000556290306  1.0000
  H   H10       1.0  0.9061736307230275  0.9138785526611924  0.5429943383011828  1.0000
  H   H11       1.0  0.9843588219867605  0.4650655851425339  0.5627053839967044  1.0000
  C   C19       1.0  0.01742383185061147  0.41061166468931876  0.18979088377184916  1.0000
  C   C20       1.0  0.9888483632342199  0.5403677350592582  0.1785072184485983  1.0000
  C   C21       1.0  0.9744116659858115  0.6047409659711405  0.05591657733920341  1.0000
  C   C22       1.0  0.9888482868462748  0.5403675995425503  0.943356048528476  1.0000
  C   C23       1.0  0.01742377689044483  0.4106116564920905  0.9522877872352664  1.0000
  C   C24       1.0  0.03154576853334956  0.34635663099205427  0.07604462893756225  1.0000
  S   S1        1.0  0.9380763003064728  0.7706179116073584  0.0429954069060523  1.0000
  C   C25       1.0  0.8266211935696467  0.7263773722620632  0.04617066485004728  1.0000
  H   H12       1.0  0.028161058747070866  0.3616965639053311  0.5213574206055402  1.0000
  H   H13       1.0  0.9774970300893845  0.5919072272445574  0.2645919538048551  1.0000
  H   H14       1.0  0.9774968604479215  0.5919070419308892  0.8492416403100216  1.0000
  H   H15       1.0  0.053571929029980314  0.2462615701692661  0.08384175479652378  1.0000
  H   H16       1.0  0.028159481055813895  0.3616959057237674  0.6283418303228454  1.0000
  H   H17       1.0  0.8115961458386778  0.668772794370361  0.9624789340874478  1.0000
  H   H18       1.0  0.8115965087406434  0.6687741027871665  0.13871362721770697  1.0000
  H   H19       1.0  0.7874053566465742  0.8163817493041021  0.03911561756198734  1.0000
  Zn  Zn1       1.0  0.9245797318471772  0.4115455384025768  0.5707605963847233  1.0000
  Zn  Zn2       1.0  0.11025976816332972  0.4096772333647971  0.5713174700705008  1.0000
  C   C26       1.0  0.0174218990505961  0.4054396401571412  0.8081595536549844  1.0000
  C   C27       1.0  0.017419628580155555  0.4157847493063289  0.33391864630730894  1.0000
  C   C28       1.0  0.017419449876214577  0.6477283161640781  0.5658657696754124  1.0000
  C   C29       1.0  0.01742201439488511  0.17349451413105288  0.5762124993137776  1.0000
  O   O2        1.0  0.08788282402642533  0.4168062077976866  0.382500570699732  1.0000
  O   O3        1.0  0.08788555482470906  0.4029992019611428  0.7599999097770285  1.0000
  O   O4        1.0  0.08788262718873718  0.5986503815530584  0.564345962095788  1.0000
  O   O5        1.0  0.08788568830238508  0.22115503813056336  0.5781544208470359  1.0000
  O   O6        1.0  0.9469537483446381  0.6000677342757845  0.5639236454113257  1.0000
  O   O7        1.0  0.9469566759767785  0.4044181144911825  0.7595775238688072  1.0000
  O   O8        1.0  0.9469539452349521  0.41822507508563156  0.3820766238841633  1.0000
  O   O9        1.0  0.9469568095074403  0.22257389613268996  0.5777305713685417  1.0000
