data_image0
_chemical_formula_structural       NC9NC3OH6C7OH6C7NH5Zn2C4O8
_chemical_formula_sum              "N3 C30 O10 H17 Zn2"
_cell_length_a       15.78231758774541
_cell_length_b       9.274078303013075
_cell_length_c       10.302823150593486
_cell_angle_alpha    85.7362338049235
_cell_angle_beta     90.08385050025007
_cell_angle_gamma    89.04960325712263

_space_group_name_H-M_alt    "P 1"
_space_group_IT_number       1

loop_
  _space_group_symop_operation_xyz
  'x, y, z'

loop_
  _atom_site_type_symbol
  _atom_site_label
  _atom_site_symmetry_multiplicity
  _atom_site_fract_x
  _atom_site_fract_y
  _atom_site_fract_z
  _atom_site_occupancy
  N   N1        1.0  0.7884986833588284  0.5693840348973391  0.5746786829553825  1.0000
  C   C1        1.0  0.7405110917701986  0.478255633163178  0.5985005495925348  1.0000
  C   C2        1.0  0.680932554008674  0.3651431358508972  0.6280696267699359  1.0000
  C   C3        1.0  0.701444043246383  0.22305561144519115  0.6651337682784273  1.0000
  C   C4        1.0  0.6251248745449519  0.15419443496778729  0.683171029553179  1.0000
  C   C5        1.0  0.562715937328968  0.2593554647986418  0.6557805899887421  1.0000
  C   C6        1.0  0.46974111637605426  0.23991279761951145  0.6609364006406131  1.0000
  C   C7        1.0  0.4152837750690342  0.3591260059866299  0.6297209249513347  1.0000
  C   C8        1.0  0.3271725381359222  0.34318348502616747  0.6339557244963885  1.0000
  C   C9        1.0  0.2719979764429691  0.4658652635326459  0.6018237745460826  1.0000
  N   N2        1.0  0.2276506181692596  0.5644855853499884  0.5759925452400909  1.0000
  C   C10       1.0  0.2928384153588952  0.2078503235619482  0.6694544908310207  1.0000
  C   C11       1.0  0.34636335166505544  0.08888358515204131  0.7006097851098381  1.0000
  C   C12       1.0  0.43429154298394557  0.10438813948909997  0.6964900508113423  1.0000
  O   O1        1.0  0.598429760915123  0.3839849547082299  0.6232219306949518  1.0000
  H   H1        1.0  0.7641907300155812  0.175138600898338  0.6775822929636182  1.0000
  H   H2        1.0  0.6170691966347617  0.04096859768885053  0.7127216912664229  1.0000
  H   H3        1.0  0.4412600481802312  0.4644392021456829  0.602091870204585  1.0000
  H   H4        1.0  0.2248027953039104  0.19434783678484568  0.6730390240736492  1.0000
  H   H5        1.0  0.3196524613482052  0.9842903646569758  0.728050376760081  1.0000
  H   H6        1.0  0.47394095366356753  0.010158104631666554  0.721175485213511  1.0000
  C   C13       1.0  0.010604376220540779  0.14343915866393786  0.5741789853296024  1.0000
  C   C14       1.0  0.9942199661414989  0.22708621597528578  0.45693301524856533  1.0000
  C   C15       1.0  0.9705141292206135  0.16224842585765908  0.34409973109588954  1.0000
  C   C16       1.0  0.9629675355149865  0.01168895539184045  0.34843980403520725  1.0000
  C   C17       1.0  0.9803055071884516  0.9269726630947798  0.46327240618953147  1.0000
  C   C18       1.0  0.005553091376915953  0.9904192730439282  0.5765034820502768  1.0000
  C   C19       1.0  0.9530568479124231  0.2533608538151122  0.22321975218730405  1.0000
  O   O2        1.0  0.9312786500735815  0.19830674554964034  0.1203585558551572  1.0000
  H   H7        1.0  0.007997976857548661  0.22009602525077598  0.893821208695778  1.0000
  H   H8        1.0  0.9980102030428774  0.34390955142728075  0.4541441902218102  1.0000
  H   H9        1.0  0.9444316079087574  0.959044160384618  0.26267588066637604  1.0000
  H   H10       1.0  0.9758885405559032  0.8105847842659095  0.4625646986121863  1.0000
  H   H11       1.0  0.007507727634189498  0.6915071286216504  0.7912188911760769  1.0000
  H   H12       1.0  0.9589065400309975  0.3696101886981453  0.22187304324175128  1.0000
  C   C20       1.0  0.008078737191146601  0.5669292456304349  0.19409313802257278  1.0000
  C   C21       1.0  0.9192188257253123  0.5783723678558534  0.19202670527106913  1.0000
  C   C22       1.0  0.8750101828674505  0.5840653106446569  0.07389612742478047  1.0000
  C   C23       1.0  0.9192188098096972  0.5783722738711847  0.9567257111147898  1.0000
  C   C24       1.0  0.008078736729866254  0.5669292381439226  0.9565893046154246  1.0000
  C   C25       1.0  0.05204440868078186  0.5612674328778704  0.07581866031579887  1.0000
  C   C26       1.0  0.7839157776032273  0.5957959544580669  0.07290682594635833  1.0000
  N   N3        1.0  0.7107056388807884  0.6052237356230374  0.07211171660393156  1.0000
  H   H13       1.0  0.04173702202826712  0.562595188859051  0.5221980871931509  1.0000
  H   H14       1.0  0.8841736078435275  0.5828853882270668  0.2820703689289028  1.0000
  H   H15       1.0  0.8841736420841438  0.5828852816694661  0.8659208322403007  1.0000
  H   H16       1.0  0.12056997148616455  0.5524429337820296  0.07656287590076305  1.0000
  H   H17       1.0  0.04173699501796313  0.5625949576728699  0.6292153861652703  1.0000
  Zn  Zn1       1.0  0.9152284648698034  0.5679665960037226  0.5750653157500478  1.0000
  Zn  Zn2       1.0  0.10092087836221109  0.5658912539360925  0.5756164930982075  1.0000
  C   C27       1.0  0.008111091435134998  0.5611840632348419  0.8124454203734675  1.0000
  C   C28       1.0  0.008040268700209907  0.5726755836667434  0.33823652691348705  1.0000
  C   C29       1.0  0.006503518039548295  0.8303220684286032  0.5708905289316739  1.0000
  C   C30       1.0  0.009647789065331924  0.3035358465247413  0.5797914826287738  1.0000
  O   O3        1.0  0.07849669902183343  0.5738102341168478  0.38682151665583375  1.0000
  O   O4        1.0  0.07859091281267294  0.5584731882311615  0.7642783847716506  1.0000
  O   O5        1.0  0.07729182700524406  0.7758055417566616  0.5692211021870255  1.0000
  O   O6        1.0  0.07979572140349656  0.35647789161596255  0.5818787017368772  1.0000
  O   O7        1.0  0.9363535584608016  0.7773799590336348  0.5688031069164634  1.0000
  O   O8        1.0  0.9376526339309778  0.560049338166158  0.7638603250326814  1.0000
  O   O9        1.0  0.9375584204962567  0.5753863337962721  0.38640189587315565  1.0000
  O   O10       1.0  0.9388574429359685  0.3580539809805541  0.5814591782628671  1.0000
