data_image0
_chemical_formula_structural       NC9NC3OH6C6NCOH7C6OCH8Zn2C4O8
_chemical_formula_sum              "N3 C30 O11 H21 Zn2"
_cell_length_a       15.78231758774541
_cell_length_b       10.299619329790078
_cell_length_c       9.273891588657152
_cell_angle_alpha    86.08234378481637
_cell_angle_beta     89.76748324947235
_cell_angle_gamma    89.65730562172189

_space_group_name_H-M_alt    "P 1"
_space_group_IT_number       1

loop_
  _space_group_symop_operation_xyz
  'x, y, z'

loop_
  _atom_site_type_symbol
  _atom_site_label
  _atom_site_symmetry_multiplicity
  _atom_site_fract_x
  _atom_site_fract_y
  _atom_site_fract_z
  _atom_site_occupancy
  N   N1        1.0  0.8034755260435501  0.4003173051623168  0.4129546830993731  1.0000
  C   C1        1.0  0.7548327241838988  0.3184720927865403  0.4396704743747335  1.0000
  C   C2        1.0  0.6944409099384962  0.21688229312378016  0.47283165406664374  1.0000
  C   C3        1.0  0.7139310816713366  0.0892684147438525  0.5143993050605649  1.0000
  C   C4        1.0  0.6371166713811497  0.027422408794036235  0.5346273580930612  1.0000
  C   C5        1.0  0.5754634758695724  0.121871657874846  0.5039083547459846  1.0000
  C   C6        1.0  0.48234859606850444  0.10441026620796601  0.509689677661952  1.0000
  C   C7        1.0  0.42874858293674306  0.2114788340588074  0.47468267290826627  1.0000
  C   C8        1.0  0.34052247506222433  0.1971609763603812  0.47943116654883045  1.0000
  C   C9        1.0  0.286230215945122  0.30734468506126666  0.4433964623575668  1.0000
  N   N2        1.0  0.24259211979272363  0.3959181595661896  0.41442778029182437  1.0000
  C   C10       1.0  0.305214869765746  0.07561521266742832  0.5192410230959508  1.0000
  C   C11       1.0  0.3578842345516187  0.9687680455254966  0.5541804876664895  1.0000
  C   C12       1.0  0.4459241457488287  0.9826925571890477  0.5495610311235646  1.0000
  O   O1        1.0  0.6120733060744704  0.23380541268826827  0.4673941757164046  1.0000
  H   H1        1.0  0.7763335284809879  0.04623197641507493  0.5283609715939315  1.0000
  H   H2        1.0  0.6282470768687385  0.9257303798454757  0.5677684260059515  1.0000
  H   H3        1.0  0.45548241523332395  0.3060629472902532  0.44369830528610277  1.0000
  H   H4        1.0  0.2370819677127367  0.06348871202477735  0.5232603946561016  1.0000
  H   H5        1.0  0.3304209625764973  0.8748305622147685  0.5849535002078603  1.0000
  H   H6        1.0  0.48489585352694764  0.8980621509816036  0.5772447039448099  1.0000
  C   C13       1.0  0.022925606618475092  0.016750033681231846  0.4136533365625661  1.0000
  C   C14       1.0  0.9824995708531615  0.024150273212476536  0.2786152127858621  1.0000
  C   C15       1.0  0.9633971198798152  0.9111299293208093  0.20957980503519025  1.0000
  C   C16       1.0  0.9827515425060317  0.7889901933314807  0.2787270186690338  1.0000
  C   C17       1.0  0.0231500488094043  0.779475509686981  0.4137416296032417  1.0000
  C   C18       1.0  0.04330965628007499  0.8939668092933192  0.4801701307807795  1.0000
  N   N3        1.0  0.9208499377594537  0.9225210734907128  0.0724016937569254  1.0000
  C   C19       1.0  0.9345441871859281  0.8367838939420336  0.9590347886077621  1.0000
  O   O2        1.0  0.9940094604300923  0.7545129994743587  0.965293797933926  1.0000
  H   H7        1.0  0.09837407926779274  0.21000653556814952  0.6690858782815934  1.0000
  H   H8        1.0  0.9662530090302479  0.11798591243008305  0.22573171795646596  1.0000
  H   H9        1.0  0.9647965645033336  0.7013715048150095  0.22880762170944036  1.0000
  H   H10       1.0  0.07448362468249425  0.8873863495941416  0.5842614557590884  1.0000
  H   H11       1.0  0.0375166672821714  0.44832450088178594  0.46658216627905924  1.0000
  H   H12       1.0  0.8817066741100458  0.0033250459406417576  0.04892601374199024  1.0000
  H   H13       1.0  0.89463064959576  0.8452850846933015  0.8642483454161436  1.0000
  C   C20       1.0  0.024424910552083956  0.39465937677159046  0.9904263940890203  1.0000
  C   C21       1.0  0.09383034628947695  0.4488175951700881  0.059239219571380675  1.0000
  C   C22       1.0  0.1584324494988798  0.5127215014158426  0.9796535981503376  1.0000
  C   C23       1.0  0.15386015466890224  0.522790293726934  0.8281987967851787  1.0000
  C   C24       1.0  0.08623460923503834  0.4678278903075257  0.7580496541255384  1.0000
  C   C25       1.0  0.021650756920318592  0.4015660860137442  0.8369685176479749  1.0000
  O   O3        1.0  0.22552343927159924  0.5653039264464823  0.055091383733341104  1.0000
  C   C26       1.0  0.2953176548970773  0.632952051278699  0.9882569902451572  1.0000
  H   H14       1.0  0.8228612660095856  0.31691413960620807  0.10075830361248794  1.0000
  H   H15       1.0  0.09705357037059525  0.4442576290009732  0.1761834646933642  1.0000
  H   H16       1.0  0.20268442254641572  0.57189262611134  0.7634461395796546  1.0000
  H   H17       1.0  0.0855528979483573  0.47452796891277393  0.6409669589797509  1.0000
  H   H18       1.0  0.8872328897708427  0.34406234112700784  0.56106819087386  1.0000
  H   H19       1.0  0.27259907662357485  0.7210628688370422  0.9237952817449226  1.0000
  H   H20       1.0  0.33062811187668206  0.5681446896449156  0.9179553824505491  1.0000
  H   H21       1.0  0.338699979728315  0.6635594095618418  0.07324962979262417  1.0000
  Zn  Zn1       1.0  0.9301950576387276  0.3990444056591522  0.4133881035234359  1.0000
  Zn  Zn2       1.0  0.11587251797310527  0.39718055576541134  0.4140061414074858  1.0000
  C   C27       1.0  0.0221717326013966  0.3950869650934923  0.6769533430847718  1.0000
  C   C28       1.0  0.02389787062117521  0.40113961574654344  0.15044105025630006  1.0000
  C   C29       1.0  0.02312211079307036  0.635257313454108  0.40798111684989835  1.0000
  C   C30       1.0  0.02294742835973418  0.1609677083512382  0.4194133529458126  1.0000
  O   O4        1.0  0.09418461806902645  0.4026014560995528  0.2043779721184087  1.0000
  O   O5        1.0  0.0928098823347292  0.39220952269301335  0.6234850826412297  1.0000
  O   O6        1.0  0.09357636994882568  0.5861501381258405  0.40628810392791936  1.0000
  O   O7        1.0  0.09341806745268322  0.2086608497111755  0.4215748425483823  1.0000
  O   O8        1.0  0.9526494447965701  0.5875641123507804  0.40581940216405243  1.0000
  O   O9        1.0  0.9518829578896619  0.39362505659003477  0.6230163042042369  1.0000
  O   O10       1.0  0.9532576993459251  0.4040169306013637  0.20390746071985433  1.0000
  O   O11       1.0  0.9524911483692491  0.21007631580592934  0.4211044392146781  1.0000
