data_image0
_chemical_formula_structural       NC9NC3OH6C7OH6C6H6Zn2C4O8
_chemical_formula_sum              "N2 C29 O10 H18 Zn2"
_cell_length_a       15.78231758774541
_cell_length_b       9.274078303013075
_cell_length_c       10.681121600428288
_cell_angle_alpha    85.73623897785308
_cell_angle_beta     90.08384876913414
_cell_angle_gamma    89.04960325712263

_space_group_name_H-M_alt    "P 1"
_space_group_IT_number       1

loop_
  _space_group_symop_operation_xyz
  'x, y, z'

loop_
  _atom_site_type_symbol
  _atom_site_label
  _atom_site_symmetry_multiplicity
  _atom_site_fract_x
  _atom_site_fract_y
  _atom_site_fract_z
  _atom_site_occupancy
  N   N1        1.0  0.7884987128862153  0.5693838906977553  0.6251599867954061  1.0000
  C   C1        1.0  0.7405111208040847  0.4782554913736494  0.6481381427033592  1.0000
  C   C2        1.0  0.6809325824299981  0.36514299705286857  0.6766599573783256  1.0000
  C   C3        1.0  0.7014440708998753  0.22305547639693768  0.7124113800165632  1.0000
  C   C4        1.0  0.6251249018247788  0.15419430174436122  0.7298098067661003  1.0000
  C   C5        1.0  0.5627159651762234  0.25935532880412815  0.7033894678276971  1.0000
  C   C6        1.0  0.46974114411650025  0.23991266214661033  0.708362672606109  1.0000
  C   C7        1.0  0.41528380345614957  0.35912586735566343  0.6782527707224963  1.0000
  C   C8        1.0  0.3271725664353081  0.3431833468236345  0.6823375842959805  1.0000
  C   C9        1.0  0.27199800540801033  0.46586512207932773  0.6513436673695387  1.0000
  N   N2        1.0  0.22765064766942833  0.5644854412833278  0.6264273153754645  1.0000
  C   C10       1.0  0.2928384429228779  0.20785018895082152  0.7165790734203061  1.0000
  C   C11       1.0  0.34636337858361566  0.08888345369289175  0.7466309253679757  1.0000
  C   C12       1.0  0.4342915699878515  0.10438800761315736  0.7426571017188017  1.0000
  O   O1        1.0  0.5984297894368733  0.38398481541976026  0.6719839545317801  1.0000
  H   H1        1.0  0.764190757411186  0.17513846710949976  0.7244190092001728  1.0000
  H   H2        1.0  0.617069223302408  0.040968467455060775  0.7583138582064317  1.0000
  H   H3        1.0  0.4412600771397184  0.46443906071948815  0.6516022677526716  1.0000
  H   H4        1.0  0.2248028227936349  0.1943477025363658  0.7200366514917866  1.0000
  H   H5        1.0  0.319652487698298  0.9842902359739873  0.7730996401311749  1.0000
  H   H6        1.0  0.47394098015608244  0.010157975253146878  0.7664682399888798  1.0000
  C   C13       1.0  0.010604405758279478  0.1434390144137998  0.6246779872054116  1.0000
  C   C14       1.0  0.9942199981081405  0.22708605986338748  0.5115845751257884  1.0000
  C   C15       1.0  0.9705141635247436  0.16224825833043077  0.40274756271371137  1.0000
  C   C16       1.0  0.9629675697292065  0.011688788303696906  0.40693392116204574  1.0000
  C   C17       1.0  0.9803055390237647  0.9269725076242368  0.5176994407499542  1.0000
  C   C18       1.0  0.005553120866499839  0.9904191290289591  0.626920156086161  1.0000
  C   C19       1.0  0.9530568847207396  0.2533606740584713  0.2861488492787332  1.0000
  O   O2        1.0  0.9312786890128012  0.19830655538654485  0.1869307383640968  1.0000
  H   H7        1.0  0.007997999773482478  0.22009591333880296  0.9329992852441626  1.0000
  H   H8        1.0  0.9980102350672934  0.34390939503323703  0.5088945232822084  1.0000
  H   H9        1.0  0.9444316438996887  0.9590439846197488  0.324207540712359  1.0000
  H   H10       1.0  0.9758885724058772  0.8105846287237675  0.5170167983988245  1.0000
  H   H11       1.0  0.007507752675663948  0.6915070063294131  0.8340308843041577  1.0000
  H   H12       1.0  0.9589065768672128  0.3696100088052581  0.2848498373841206  1.0000
  C   C20       1.0  0.008078774602858552  0.5669290629270582  0.2580538266870025  1.0000
  C   C21       1.0  0.9479053484246189  0.48739918325126763  0.1962439813396546  1.0000
  C   C22       1.0  0.9479052949671594  0.48739927631253543  0.0653618414788737  1.0000
  C   C23       1.0  0.008078707566234078  0.5669291343635328  0.9935442623582471  1.0000
  C   C24       1.0  0.06820246993031964  0.6463931053338701  0.0553532069384699  1.0000
  C   C25       1.0  0.06820245922217039  0.6463930830924403  0.1862455055110308  1.0000
  H   H13       1.0  0.06893005477245961  0.6473556301866659  0.5517032924797525  1.0000
  H   H14       1.0  0.9007385763080483  0.4250599047748125  0.24897718715513495  1.0000
  H   H15       1.0  0.9007385582057863  0.4250599728560891  0.020473158058233354  1.0000
  H   H16       1.0  0.11537540098621979  0.7087405991516695  0.0026643763383402685  1.0000
  H   H17       1.0  0.11537535859354553  0.7087405490728844  0.2310887435657072  1.0000
  H   H18       1.0  0.06893032223841788  0.6473551247899252  0.6897742661994513  1.0000
  Zn  Zn1       1.0  0.9152284943891807  0.5679664518432546  0.6255329260268385  1.0000
  Zn  Zn2       1.0  0.10092090787017027  0.5658911098313868  0.6260645820566477  1.0000
  C   C26       1.0  0.008111116036874089  0.5611839430900902  0.8545056231108001  1.0000
  C   C27       1.0  0.00804030312580406  0.5726754155463356  0.39709201850823406  1.0000
  C   C28       1.0  0.0065035476454118335  0.8303219238457724  0.6215059996798724  1.0000
  C   C29       1.0  0.009647818486800519  0.3035357028424188  0.6300917039362488  1.0000
  O   O3        1.0  0.07849673244092603  0.5738100709117773  0.44395624985040927  1.0000
  O   O4        1.0  0.07859093841225495  0.5584730632133563  0.8080445430224599  1.0000
  O   O5        1.0  0.07729185664569171  0.7758053970049352  0.6198956998406646  1.0000
  O   O6        1.0  0.07979575078172574  0.3564777481448038  0.6321049989819556  1.0000
  O   O7        1.0  0.9363535881099087  0.7773798142396198  0.6194925089135193  1.0000
  O   O8        1.0  0.9376526595392206  0.5600492131060579  0.807641289910217  1.0000
  O   O9        1.0  0.9375584539240426  0.5753861705487486  0.4435514909827074  1.0000
  O   O10       1.0  0.9388574723228891  0.3580538374669522  0.6317003339764928  1.0000
