data_image0
_chemical_formula_structural       NC9NC3OH6C6OCH8C6NCOH7Zn2C4O8
_chemical_formula_sum              "N3 C30 O11 H21 Zn2"
_cell_length_a       15.78231758774541
_cell_length_b       9.273888216677433
_cell_length_c       10.29962270195845
_cell_angle_alpha    85.77969719785527
_cell_angle_beta     90.10253899755935
_cell_angle_gamma    89.05820199757643

_space_group_name_H-M_alt    "P 1"
_space_group_IT_number       1

loop_
  _space_group_symop_operation_xyz
  'x, y, z'

loop_
  _atom_site_type_symbol
  _atom_site_label
  _atom_site_symmetry_multiplicity
  _atom_site_fract_x
  _atom_site_fract_y
  _atom_site_fract_z
  _atom_site_occupancy
  N   N1        1.0  0.7883398740393416  0.5688406572711973  0.5748715308244845  1.0000
  C   C1        1.0  0.7403491638018734  0.4777222090101485  0.5986652880368943  1.0000
  C   C2        1.0  0.6807667551124142  0.3646220665057571  0.6281994746860722  1.0000
  C   C3        1.0  0.7012733652207026  0.2225500326400598  0.6652197652916187  1.0000
  C   C4        1.0  0.6249518475054224  0.15369639079457453  0.6832357960856217  1.0000
  C   C5        1.0  0.5625465300434189  0.2588459709748767  0.6558778230484152  1.0000
  C   C6        1.0  0.46957105905963636  0.23940545427727566  0.6610276574567919  1.0000
  C   C7        1.0  0.4151177866569282  0.35860562257531803  0.6298489393096698  1.0000
  C   C8        1.0  0.3270060182127944  0.342664867581286  0.6340788405322291  1.0000
  C   C9        1.0  0.2718356420850891  0.4653332235902523  0.6019847152385238  1.0000
  N   N2        1.0  0.22749164819634982  0.5639427549796763  0.5761838917070907  1.0000
  C   C10       1.0  0.2926672893897073  0.20734653230521682  0.669535896876571  1.0000
  C   C11       1.0  0.34618816611582437  0.08839280860051657  0.700654510858157  1.0000
  C   C12       1.0  0.43411687407807337  0.10389564501915016  0.6965395399525638  1.0000
  O   O1        1.0  0.598264623110757  0.3834618558587055  0.6233576128555653  1.0000
  H   H1        1.0  0.7640183959297804  0.17463822743157387  0.6776534872940596  1.0000
  H   H2        1.0  0.6168922847299556  0.040482903097920575  0.7127515185251596  1.0000
  H   H3        1.0  0.44109764310046756  0.4639072796014605  0.6022523409768661  1.0000
  H   H4        1.0  0.2246312187282599  0.1938455404323587  0.6731162808857776  1.0000
  H   H5        1.0  0.3194737170528085  0.9838110485060338  0.7280628681048429  1.0000
  H   H6        1.0  0.4737630710110843  0.00967592174691334  0.7211959233424841  1.0000
  C   C13       1.0  0.010407573592420505  0.1429013198951674  0.574208355603713  1.0000
  C   C14       1.0  0.9905957921990491  0.2263423017474686  0.458155555363132  1.0000
  C   C15       1.0  0.9635762370188072  0.16187812976982086  0.3471760753977706  1.0000
  C   C16       1.0  0.9562116651963947  0.010981107213766439  0.35183188651338493  1.0000
  C   C17       1.0  0.9769096464770642  0.9263342166139946  0.46538932577179937  1.0000
  C   C18       1.0  0.005432082345121492  0.9898709283822305  0.5768582736479355  1.0000
  O   O2        1.0  0.9442788286440548  0.25148188360058943  0.23494274361256973  1.0000
  C   C19       1.0  0.9159725377145997  0.2008289154629006  0.11534893853569272  1.0000
  H   H7        1.0  0.0173758904452177  0.21962599545049066  0.8938059691051481  1.0000
  H   H8        1.0  0.9941738568048911  0.3431765457797584  0.4543170175460729  1.0000
  H   H9        1.0  0.9352787880642689  0.957746657815661  0.26778044035852067  1.0000
  H   H10       1.0  0.972506313987126  0.8099147493079177  0.4649437436606936  1.0000
  H   H11       1.0  0.013675900469469315  0.6909273552493815  0.7912303888434071  1.0000
  H   H12       1.0  0.8551686219810907  0.14338856495140595  0.13013387000436372  1.0000
  H   H13       1.0  0.9646131774181084  0.1276637644190426  0.07655440846244943  1.0000
  H   H14       1.0  0.9056518330746508  0.2946029661050391  0.04352067691754424  1.0000
  C   C20       1.0  0.007840029041480845  0.5662464390993258  0.19417584693967394  1.0000
  C   C21       1.0  0.9189848099052698  0.5783618625165623  0.19185177984783608  1.0000
  C   C22       1.0  0.8743615618668006  0.5868252281424948  0.07372623097428499  1.0000
  C   C23       1.0  0.9191703593538354  0.5786688703734661  0.9566811143072624  1.0000
  C   C24       1.0  0.00799964442294021  0.5665258056890163  0.95689073440517  1.0000
  C   C25       1.0  0.05184967465074619  0.5609619844183931  0.07614238475296475  1.0000
  N   N3        1.0  0.7833392105972419  0.5969850559152823  0.07536563229899707  1.0000
  C   C26       1.0  0.7331645529038924  0.6762519011718504  0.97738981925872  1.0000
  O   O3        1.0  0.7668096873716428  0.7592323008042512  0.8906426881987719  1.0000
  H   H15       1.0  0.17539208260447658  0.5418500652343452  0.4059137312129937  1.0000
  H   H16       1.0  0.883974709991922  0.5825047026882963  0.2819146255199869  1.0000
  H   H17       1.0  0.8847798143839939  0.5787802238589042  0.8657252599031624  1.0000
  H   H18       1.0  0.12034822252118471  0.5516409745427986  0.07705663680553032  1.0000
  H   H19       1.0  0.04202432926911448  0.5596785512431175  0.6296693303450938  1.0000
  H   H20       1.0  0.7514268492379925  0.5525047695619218  0.15722650642430858  1.0000
  H   H21       1.0  0.6648798207088972  0.6680197358613618  0.9800522955403315  1.0000
  Zn  Zn1       1.0  0.9150696104126936  0.5674233790967045  0.575257731016082  1.0000
  Zn  Zn2       1.0  0.10076195469512594  0.565348266881952  0.5758082706905958  1.0000
  C   C27       1.0  0.00800133223097288  0.5607279230785109  0.8127033439029687  1.0000
  C   C28       1.0  0.007832249969004446  0.5720455198885055  0.3383627969711982  1.0000
  C   C29       1.0  0.006367126606985796  0.8297737973368964  0.5711823500590347  1.0000
  C   C30       1.0  0.009466402421922648  0.30299791372869755  0.5798838544429281  1.0000
  O   O4        1.0  0.07829895311172375  0.5731979585944449  0.38696216181889653  1.0000
  O   O5        1.0  0.07847082808299977  0.557999434148583  0.7645214486909846  1.0000
  O   O6        1.0  0.07715023669731136  0.7752573912721137  0.5694915392359152  1.0000
  O   O7        1.0  0.07961948105221417  0.3559400124596517  0.5819919737466359  1.0000
  O   O8        1.0  0.9362120206879113  0.7768316342287058  0.5690740277653439  1.0000
  O   O9        1.0  0.9375326018769737  0.5595754097162986  0.7641038733979191  1.0000
  O   O10       1.0  0.9373607269305213  0.5747738833352345  0.3865430250149562  1.0000
  O   O11       1.0  0.9386812549485155  0.357515926921405  0.581572934275328  1.0000
