data_image0
_chemical_formula_structural       NC9NC3OH6C7OH6C6FH5Zn2C4O8
_chemical_formula_sum              "N2 C29 O10 H17 F1 Zn2"
_cell_length_a       15.78231758774541
_cell_length_b       9.274078303013075
_cell_length_c       9.275646106892307
_cell_angle_alpha    85.12816717497476
_cell_angle_beta     90.10253560025426
_cell_angle_gamma    89.04960325712263

_space_group_name_H-M_alt    "P 1"
_space_group_IT_number       1

loop_
  _space_group_symop_operation_xyz
  'x, y, z'

loop_
  _atom_site_type_symbol
  _atom_site_label
  _atom_site_symmetry_multiplicity
  _atom_site_fract_x
  _atom_site_fract_y
  _atom_site_fract_z
  _atom_site_occupancy
  N   N1        1.0  0.7880293174902115  0.5862626473182517  0.4154945486994026  1.0000
  C   C1        1.0  0.7400495705686  0.494852147751621  0.4419769124270345  1.0000
  C   C2        1.0  0.6804807700610038  0.38138949431148816  0.4748483523032505  1.0000
  C   C3        1.0  0.7010044647170741  0.23886305745021574  0.5160519276414441  1.0000
  C   C4        1.0  0.6246912357814378  0.1697882842640901  0.536103644033112  1.0000
  C   C5        1.0  0.5622732787484453  0.2752736708613226  0.5056541585140435  1.0000
  C   C6        1.0  0.46930015563132205  0.25576994872660586  0.5113857854714667  1.0000
  C   C7        1.0  0.4148325349026125  0.3753528098235286  0.4766840723888621  1.0000
  C   C8        1.0  0.32672269251144903  0.3593601404934694  0.4813918269730817  1.0000
  C   C9        1.0  0.27153754959697196  0.48242242459054974  0.445671285051527  1.0000
  N   N2        1.0  0.22718168496246102  0.5813486390530085  0.4169551470413224  1.0000
  C   C10       1.0  0.2924002596664368  0.22360660369968932  0.5208552013708632  1.0000
  C   C11       1.0  0.3459354555762292  0.10427092522644155  0.5554900118036572  1.0000
  C   C12       1.0  0.4338622902447665  0.11982426533388724  0.5509101732957957  1.0000
  O   O1        1.0  0.5979763805954266  0.4002887194408  0.46945925107729836  1.0000
  H   H1        1.0  0.7637552508514696  0.19079863184623735  0.5298907406785169  1.0000
  H   H2        1.0  0.616645289060866  0.05621250893267682  0.5689546117512276  1.0000
  H   H3        1.0  0.44079970961955617  0.4809931884228147  0.445969322432493  1.0000
  H   H4        1.0  0.22436582001725872  0.21006166898710132  0.524840065973246  1.0000
  H   H5        1.0  0.31923360159173536  0.9993527540654971  0.5859952505430017  1.0000
  H   H6        1.0  0.47351982996885156  0.025301906300331023  0.5783525506111524  1.0000
  C   C13       1.0  0.010134845798845271  0.16032368848919476  0.4149390433529363  1.0000
  C   C14       1.0  0.9937118260000648  0.2453591690727175  0.28459869376661606  1.0000
  C   C15       1.0  0.9699688324803188  0.18185754733243664  0.15916385202947536  1.0000
  C   C16       1.0  0.9624236679837275  0.031246681852634017  0.1639886372545014  1.0000
  C   C17       1.0  0.9797994546420744  0.9451705453142295  0.291646086788643  1.0000
  C   C18       1.0  0.005084326424318775  0.007276276248518565  0.41752314679781843  1.0000
  C   C19       1.0  0.9524717447540104  0.2744014323859476  0.024783636675017373  1.0000
  O   O2        1.0  0.9306596741777122  0.22056540333200503  0.9104345952577937  1.0000
  H   H7        1.0  0.007633706315168354  0.2331953614238791  0.7702798632318648  1.0000
  H   H8        1.0  0.9975011445265722  0.36221552970729687  0.2814984044460438  1.0000
  H   H9        1.0  0.9438594978627006  0.9796175006616991  0.06864634322033036  1.0000
  H   H10       1.0  0.9753822549576676  0.8287910471373304  0.29085934031904337  1.0000
  H   H11       1.0  0.007109669604518309  0.7058214783711264  0.6562186129847023  1.0000
  H   H12       1.0  0.9583209933941873  0.39066671495604877  0.0232865232592383  1.0000
  C   C20       1.0  0.007484042484221742  0.5883147406953559  0.9924040753999228  1.0000
  C   C21       1.0  0.0849822143368344  0.602518678860356  0.06476896481785088  1.0000
  C   C22       1.0  0.16151078584416445  0.6031935974378186  0.9895823773766428  1.0000
  C   C23       1.0  0.16188606158004415  0.5895316907435078  0.8411654274144116  1.0000
  C   C24       1.0  0.08570140717781394  0.5777173918419305  0.7668803314710964  1.0000
  C   C25       1.0  0.007735081922794151  0.5792852667925887  0.8400580719211277  1.0000
  F   F1        1.0  0.23564034541802914  0.6153829490969973  0.061304121475952655  1.0000
  H   H13       1.0  0.8116922133042122  0.47335329646295876  0.10454601388059626  1.0000
  H   H14       1.0  0.08644385999758608  0.6096735969176978  0.18072310136807768  1.0000
  H   H15       1.0  0.22130448378089773  0.5894700699029576  0.7830495384010656  1.0000
  H   H16       1.0  0.08767484750529753  0.5708027959555004  0.6509328019134166  1.0000
  H   H17       1.0  0.8751458486547278  0.5078267138057411  0.5645473278039472  1.0000
  Zn  Zn1       1.0  0.9147592263214163  0.584840629930641  0.4159243617973143  1.0000
  Zn  Zn2       1.0  0.10045182131944763  0.5827587608373337  0.41653709627504165  1.0000
  C   C26       1.0  0.007720023414099275  0.5752470490602122  0.6798157842493511  1.0000
  C   C27       1.0  0.007493041175683501  0.5923541370301455  0.152645827722951  1.0000
  C   C28       1.0  0.00603290471172202  0.8472455400562029  0.41128332234001674  1.0000
  C   C29       1.0  0.009180106868762028  0.3203539133247888  0.42117836108403295  1.0000
  O   O3        1.0  0.07796547079209004  0.5929134454843585  0.20665693397494667  1.0000
  O   O4        1.0  0.07818398313136887  0.573106566651987  0.6262693105024217  1.0000
  O   O5        1.0  0.07682066392633713  0.7927487826858577  0.40942744903916206  1.0000
  O   O6        1.0  0.07932872653924816  0.37327124162973746  0.42349868704513405  1.0000
  O   O7        1.0  0.9358822577338353  0.7943281498503274  0.4089627708105388  1.0000
  O   O8        1.0  0.937245566580385  0.5746876672379131  0.625804560605367  1.0000
  O   O9        1.0  0.9370270540831646  0.5944945143005451  0.20619044869216752  1.0000
  O   O10       1.0  0.9383903099204158  0.37485229897876504  0.42303230993874497  1.0000
