data_image0
_chemical_formula_structural       NC9NC3OH6C6NH7C6NCOH7Zn2C4O8
_chemical_formula_sum              "N4 C29 O10 H20 Zn2"
_cell_length_a       15.78231758774541
_cell_length_b       9.274771166103582
_cell_length_c       10.29962270195845
_cell_angle_alpha    85.47454724786482
_cell_angle_beta     90.10253899755935
_cell_angle_gamma    90.23039320205511

_space_group_name_H-M_alt    "P 1"
_space_group_IT_number       1

loop_
  _space_group_symop_operation_xyz
  'x, y, z'

loop_
  _atom_site_type_symbol
  _atom_site_label
  _atom_site_symmetry_multiplicity
  _atom_site_fract_x
  _atom_site_fract_y
  _atom_site_fract_z
  _atom_site_occupancy
  N   N1        1.0  0.8071916471347566  0.5691256089183538  0.5673909511618389  1.0000
  C   C1        1.0  0.7581060237182716  0.4779906106324203  0.5916191813130998  1.0000
  C   C2        1.0  0.6971645616324906  0.3648699255243226  0.6216926544869732  1.0000
  C   C3        1.0  0.7159639813175663  0.2227720868327001  0.6593903760108484  1.0000
  C   C4        1.0  0.6388150926217802  0.15390593896337812  0.6777347162163274  1.0000
  C   C5        1.0  0.5776732916408484  0.25907461767094664  0.6498753666961827  1.0000
  C   C6        1.0  0.4844642161747096  0.23963056995365384  0.6551178977931404  1.0000
  C   C7        1.0  0.43144329734804837  0.35885238881521286  0.6233708068475308  1.0000
  C   C8        1.0  0.3431399788604322  0.3429087384701637  0.62767671711987  1.0000
  C   C9        1.0  0.2894436313428031  0.4655993749764751  0.5949976819406657  1.0000
  N   N2        1.0  0.2462845662753452  0.5642268170111033  0.5687266663271779  1.0000
  C   C10       1.0  0.3071752145694022  0.20756582505586985  0.6637790012521059  1.0000
  C   C11       1.0  0.3592666990894068  0.08859049554987442  0.6954648129297851  1.0000
  C   C12       1.0  0.44738169490258883  0.10409614777950305  0.6912759210671531  1.0000
  O   O1        1.0  0.6148888155498884  0.3837131367856612  0.6167609603688926  1.0000
  H   H1        1.0  0.7781332859475194  0.17485157930779383  0.6720525521102572  1.0000
  H   H2        1.0  0.6293951144519863  0.04067188807590538  0.707790265635537  1.0000
  H   H3        1.0  0.45868849768462566  0.4641731719906417  0.5952721068957116  1.0000
  H   H4        1.0  0.23897691096596  0.1940623809710198  0.6674237609802627  1.0000
  H   H5        1.0  0.3312955566827536  0.9839897400624154  0.7233718391674997  1.0000
  H   H6        1.0  0.4858957125820799  0.009859311191636078  0.7163815649619334  1.0000
  C   C13       1.0  0.024141101120060293  0.14310890733378456  0.56875874902296  1.0000
  C   C14       1.0  0.004619669819432737  0.22659262650662138  0.4525665562047658  1.0000
  C   C15       1.0  0.9930086865054139  0.1616296834343698  0.3356616142081521  1.0000
  C   C16       1.0  0.0009633720477650876  0.011804742498569887  0.33410250200734937  1.0000
  C   C17       1.0  0.01891772322337082  0.927018490182507  0.4486946025910874  1.0000
  C   C18       1.0  0.02934314331076826  0.9902323913178209  0.567370151934163  1.0000
  N   N3        1.0  0.9740075380058416  0.2482066253545696  0.2181946371914345  1.0000
  H   H7        1.0  0.11955446167274131  0.22180954219131044  0.8532617050492237  1.0000
  H   H8        1.0  0.00034754125598257524  0.343232812902045  0.4520547133931214  1.0000
  H   H9        1.0  0.9924308992388503  0.9603795548290063  0.24415716355330663  1.0000
  H   H10       1.0  0.022650835759357557  0.8108114546650707  0.44498669338620234  1.0000
  H   H11       1.0  0.09017424865748436  0.6925587169210056  0.7609204727372689  1.0000
  H   H12       1.0  0.9681699678459559  0.3603456382394623  0.2181346997900182  1.0000
  H   H13       1.0  0.965555284245405  0.20079853798930491  0.13038523509657973  1.0000
  C   C19       1.0  0.0266606290460476  0.5665309195534785  0.18670763708374327  1.0000
  C   C20       1.0  0.9379509933457051  0.578648543519154  0.1843258009701767  1.0000
  C   C21       1.0  0.8934294442577724  0.5871134463630086  0.06615989689516821  1.0000
  C   C22       1.0  0.9381402319149154  0.5789556071385047  0.949153671548157  1.0000
  C   C23       1.0  0.026823601400398855  0.5668103368850783  0.9494211924674767  1.0000
  C   C24       1.0  0.07060677468154775  0.5612455050465375  0.06869937234715895  1.0000
  N   N4        1.0  0.8025291772591518  0.5972751194855108  0.06775085391123659  1.0000
  C   C25       1.0  0.7533070194731962  0.676556362136751  0.9693970789996893  1.0000
  O   O2        1.0  0.7879492772995148  0.7595518336640872  0.8822542790188654  1.0000
  H   H14       1.0  0.19391952670291412  0.5421301145266175  0.39856184867005795  1.0000
  H   H15       1.0  0.9029906753413904  0.5827921361631834  0.2743688926629859  1.0000
  H   H16       1.0  0.9037510250099887  0.5790669808492983  0.8581972861859795  1.0000
  H   H17       1.0  0.13899331782902058  0.551922802177391  0.06965806903888372  1.0000
  H   H18       1.0  0.060766007089323226  0.5599618387587433  0.6222324376328743  1.0000
  H   H19       1.0  0.7700823242281919  0.5527867540893208  0.14982381989172944  1.0000
  H   H20       1.0  0.6849233665166832  0.6683227016017133  0.9720988080684556  1.0000
  Zn  Zn1       1.0  0.9339043529662018  0.5677080733208089  0.5677839092496191  1.0000
  Zn  Zn2       1.0  0.11957176192812335  0.5656325841992995  0.5683443435186921  1.0000
  C   C26       1.0  0.02675561969362117  0.5610114011936294  0.8052614475534625  1.0000
  C   C27       1.0  0.026722533886141653  0.5723310536412298  0.3308669358138996  1.0000
  C   C28       1.0  0.028354369405327207  0.8301061427889715  0.5624575834027401  1.0000
  C   C29       1.0  0.025123710192195725  0.3032345798298963  0.5736708718505072  1.0000
  O   O3        1.0  0.09720308516116893  0.5734837016669021  0.3794608055786486  1.0000
  O   O4        1.0  0.09719232900740948  0.5582824166828331  0.7570925623809008  1.0000
  O   O5        1.0  0.0984823900751004  0.7755798348009864  0.5610267188760139  1.0000
  O   O6        1.0  0.09591296078032441  0.35618629453948225  0.575526551503809  1.0000
  O   O7        1.0  0.9575630907548341  0.7771543636904561  0.5606017010664199  1.0000
  O   O8        1.0  0.9562730403102172  0.5598586784981239  0.7566674724873399  1.0000
  O   O9        1.0  0.956283795878045  0.5750599126460347  0.37903415441656674  1.0000
  O   O10       1.0  0.954993671451188  0.3577624952377121  0.5750999977233722  1.0000
