data_image0
_chemical_formula_structural       NC9NC3OH6C6NH7C6H6Zn2C4O8
_chemical_formula_sum              "N3 C28 O9 H19 Zn2"
_cell_length_a       15.78231758774541
_cell_length_b       9.274771166103582
_cell_length_c       10.681121600428288
_cell_angle_alpha    85.45578074471726
_cell_angle_beta     90.08384876913414
_cell_angle_gamma    90.23039320205511

_space_group_name_H-M_alt    "P 1"
_space_group_IT_number       1

loop_
  _space_group_symop_operation_xyz
  'x, y, z'

loop_
  _atom_site_type_symbol
  _atom_site_label
  _atom_site_symmetry_multiplicity
  _atom_site_fract_x
  _atom_site_fract_y
  _atom_site_fract_z
  _atom_site_occupancy
  N   N1        1.0  0.8074978310289921  0.5696503753491813  0.6185243280692223  1.0000
  C   C1        1.0  0.7584070294420465  0.4785065022331798  0.6418877924805708  1.0000
  C   C2        1.0  0.6974591399131772  0.36537480117541166  0.6708878686659487  1.0000
  C   C3        1.0  0.7162505026652123  0.22326315376270767  0.7072400648318813  1.0000
  C   C4        1.0  0.6390976933313943  0.1543902863393356  0.7249296499507549  1.0000
  C   C5        1.0  0.5779618465807069  0.2595691699603977  0.6980646698439292  1.0000
  C   C6        1.0  0.4847516506563467  0.24012320189761027  0.7031200819786361  1.0000
  C   C7        1.0  0.4317375169661777  0.35935664975705817  0.6725061235986423  1.0000
  C   C8        1.0  0.3434332781993154  0.3434114221518578  0.676658345233413  1.0000
  C   C9        1.0  0.2897439149976511  0.4661140290283603  0.6451457060253516  1.0000
  N   N2        1.0  0.24659046469429977  0.5647510941678469  0.6198123682411312  1.0000
  C   C10       1.0  0.30746079795957276  0.2080552844271324  0.7114720491327873  1.0000
  C   C11       1.0  0.35954551043997623  0.08906834836991795  0.7420269154541983  1.0000
  C   C12       1.0  0.4476614015226835  0.10457553499571315  0.7379875355513084  1.0000
  O   O1        1.0  0.6151844478552662  0.38421981892228274  0.6661321989659303  1.0000
  H   H1        1.0  0.7784171010757744  0.17533800806735034  0.7194502964014939  1.0000
  H   H2        1.0  0.6296712915492605  0.041145226067685226  0.7539124421248129  1.0000
  H   H3        1.0  0.45898872268809104  0.46468772552033344  0.6454103360718206  1.0000
  H   H4        1.0  0.23926171538106533  0.19455050526237683  0.7149867183292198  1.0000
  H   H5        1.0  0.3315684036133881  0.9844573705049265  0.7689378705780703  1.0000
  H   H6        1.0  0.4861700535067526  0.010329502180060679  0.7621970966293461  1.0000
  C   C13       1.0  0.024446992682151336  0.14363317273859777  0.6198433058257771  1.0000
  C   C14       1.0  0.004950394519430912  0.22715945325248188  0.507798301100445  1.0000
  C   C15       1.0  0.9933643966754013  0.16223933260216583  0.39506598698601403  1.0000
  C   C16       1.0  0.0013194154384907897  0.01241496277105436  0.39356252337396547  1.0000
  C   C17       1.0  0.01924927545537214  0.9275867352296691  0.5040645471328298  1.0000
  C   C18       1.0  0.029649331650311916  0.9907571653674305  0.6185042712176667  1.0000
  N   N3        1.0  0.9743883537665667  0.24885930281840984  0.28179169827797224  1.0000
  H   H7        1.0  0.11979954793483238  0.22222959381853036  0.8941916443773341  1.0000
  H   H8        1.0  0.0006783753494163935  0.3437998271365479  0.5073047272306499  1.0000
  H   H9        1.0  0.9928061661672318  0.9610227221879749  0.30682755755854485  1.0000
  H   H10       1.0  0.022983180463025166  0.8113810579238679  0.5004889824214167  1.0000
  H   H11       1.0  0.0904390705188518  0.6930125932535335  0.8051463001094541  1.0000
  H   H12       1.0  0.9685507964167822  0.36099833765844536  0.281733900191353  1.0000
  H   H13       1.0  0.9659548670414951  0.20148338014355205  0.19711643194539596  1.0000
  C   C19       1.0  0.027048174355436272  0.5671951307436185  0.25142854744758036  1.0000
  C   C20       1.0  0.9659119515097928  0.48765174672871225  0.18995496981853321  1.0000
  C   C21       1.0  0.9659118991789423  0.48765183980578186  0.05907282956427151  1.0000
  C   C22       1.0  0.027048108183628905  0.5671952021922237  0.9869189828167779  1.0000
  C   C23       1.0  0.0881338693177467  0.6466726663102411  0.0483919383534579  1.0000
  C   C24       1.0  0.0881338583403406  0.6466726440650352  0.17928423702006002  1.0000
  H   H14       1.0  0.08887310658189862  0.6476353546017608  0.5447379541534385  1.0000
  H   H15       1.0  0.9179904938610655  0.42530188291300774  0.24295175816449488  1.0000
  H   H16       1.0  0.917990476583002  0.4253019510058449  0.014447728779732438  1.0000
  H   H17       1.0  0.136061585361547  0.7090307468622721  0.9954394904867949  1.0000
  H   H18       1.0  0.1360615423626137  0.7090306967749833  0.22386385792590424  1.0000
  H   H19       1.0  0.08887336792947376  0.6476348491192028  0.6828089300100526  1.0000
  Zn  Zn1       1.0  0.9342104528756003  0.5682326958106125  0.6189032605063698  1.0000
  Zn  Zn2       1.0  0.11987774205889346  0.5661570014013511  0.6194436914837316  1.0000
  C   C25       1.0  0.027010964794839554  0.5614490353733435  0.8479046353495852  1.0000
  C   C26       1.0  0.02707926879718059  0.5729424591055321  0.39044244257816274  1.0000
  C   C27       1.0  0.02866160768195236  0.8306327163183878  0.6137670444645915  1.0000
  C   C28       1.0  0.02542855191246307  0.30375704591816466  0.6245801027832556  1.0000
  O   O2        1.0  0.09754943436349439  0.5740773071378171  0.4373018763779257  1.0000
  O   O3        1.0  0.09745796898764914  0.5587376951835636  0.8014550173858506  1.0000
  O   O4        1.0  0.09878993416277204  0.7761069324578131  0.6123872510484436  1.0000
  O   O5        1.0  0.09621740589607275  0.3567080808900449  0.6263695486184695  1.0000
  O   O6        1.0  0.9578707256792968  0.7776816170318219  0.61197740318062  1.0000
  O   O7        1.0  0.9565387711426538  0.5603141127097977  0.8010451000069159  1.0000
  O   O8        1.0  0.9566302362662487  0.5756536743997873  0.4368904534560234  1.0000
  O   O9        1.0  0.9552982077320017  0.35828443783544084  0.6259582196024189  1.0000
