data_image0
_chemical_formula_structural       NC9NC3OH6C8H10C6NH7Zn2C4O8
_chemical_formula_sum              "N3 C30 O9 H23 Zn2"
_cell_length_a       15.78231758774541
_cell_length_b       9.275653711864159
_cell_length_c       9.274774538082514
_cell_angle_alpha    85.24959572730752
_cell_angle_beta     90.43038941912484
_cell_angle_gamma    89.08352321082864

_space_group_name_H-M_alt    "P 1"
_space_group_IT_number       1

loop_
  _space_group_symop_operation_xyz
  'x, y, z'

loop_
  _atom_site_type_symbol
  _atom_site_label
  _atom_site_symmetry_multiplicity
  _atom_site_fract_x
  _atom_site_fract_y
  _atom_site_fract_z
  _atom_site_occupancy
  N   N1        1.0  0.7832829495424296  0.5829362364381019  0.41575624072494644  1.0000
  C   C1        1.0  0.735359907919192  0.49159365651176534  0.44222609056640216  1.0000
  C   C2        1.0  0.6758614937711304  0.3782153085987816  0.47508199765216275  1.0000
  C   C3        1.0  0.6964733102160239  0.23579460439686217  0.5162660649141755  1.0000
  C   C4        1.0  0.6202030653319877  0.16677123174510222  0.5363083235377415  1.0000
  C   C5        1.0  0.557720041349423  0.2721784517538002  0.5058732743502246  1.0000
  C   C6        1.0  0.4647592888137641  0.25268937634060573  0.5116022280768864  1.0000
  C   C7        1.0  0.4102172938347403  0.3721832752797669  0.47691688789151954  1.0000
  C   C8        1.0  0.3221176216090509  0.3562026311197286  0.481622450164922  1.0000
  C   C9        1.0  0.26685590987066415  0.4791733471432773  0.4459187578936066  1.0000
  N   N2        1.0  0.2224384890002464  0.5780259499537321  0.41721616488685376  1.0000
  C   C10       1.0  0.28787985141918837  0.22055021837721545  0.521067234893474  1.0000
  C   C11       1.0  0.341489283989045  0.10130332738955894  0.5556857060813651  1.0000
  C   C12       1.0  0.4294062231607523  0.11684496997615357  0.5511079997158745  1.0000
  O   O1        1.0  0.5933456685708368  0.3971006557595489  0.4696954802755191  1.0000
  H   H1        1.0  0.759253625391268  0.18776572763260857  0.5300983014408549  1.0000
  H   H2        1.0  0.612227397070899  0.05327974433661664  0.5691437450872012  1.0000
  H   H3        1.0  0.43611856846437513  0.47774495140760664  0.4462166042087772  1.0000
  H   H4        1.0  0.21985401749123623  0.20701546385031055  0.5250502428190598  1.0000
  H   H5        1.0  0.3148528811373291  0.9964633215488496  0.5861765774267718  1.0000
  H   H6        1.0  0.4691225941766913  0.02239295440691169  0.578537434823384  1.0000
  C   C13       1.0  0.0052381467982562935  0.15707710256275997  0.41514733257940817  1.0000
  C   C14       1.0  0.9848828755815663  0.2418305681234989  0.286367608811658  1.0000
  C   C15       1.0  0.9569075509575798  0.17798767661603643  0.16314789871031854  1.0000
  C   C16       1.0  0.9505444387996049  0.027424981745759247  0.16773810020934055  1.0000
  C   C17       1.0  0.9718040450996053  0.9414981389655221  0.29373955500469306  1.0000
  C   C18       1.0  0.0004914757271206049  0.00387377523923238  0.41783749748764554  1.0000
  C   C19       1.0  0.9365600593896791  0.2701997778071159  0.025571199735193062  1.0000
  C   C20       1.0  0.015488711065151817  0.2919642816899475  0.9329618402768123  1.0000
  H   H7        1.0  0.08288676214394486  0.4190123068409226  0.6154390830336165  1.0000
  H   H8        1.0  0.9889260783295577  0.3586378772720171  0.28249292417243654  1.0000
  H   H9        1.0  0.9299086919152526  0.9762385359778529  0.0730060061239679  1.0000
  H   H10       1.0  0.9678822481204385  0.8250785360989041  0.292845575925041  1.0000
  H   H11       1.0  0.009330851438149157  0.7025970088422896  0.6558552532498032  1.0000
  H   H12       1.0  0.8869315660623542  0.21842032767690767  0.9626502197191442  1.0000
  H   H13       1.0  0.9109364005039075  0.377427106403891  0.05106596914971817  1.0000
  H   H14       1.0  0.06508718972795324  0.3470877478860801  0.9927094105367051  1.0000
  H   H15       1.0  0.040815574506777974  0.18603298666309187  0.9033494891461586  1.0000
  H   H16       1.0  0.9991409040131498  0.3600825336290059  0.8321800524169842  1.0000
  C   C21       1.0  0.0013233833572723341  0.5841801643648861  0.9926827747697775  1.0000
  C   C22       1.0  0.06089067810050297  0.6685941504995976  0.05988919776016477  1.0000
  C   C23       1.0  0.12432618417262309  0.7410886475659675  0.9795691003024998  1.0000
  C   C24       1.0  0.12870962896925198  0.7294954031467158  0.8305693647348962  1.0000
  C   C25       1.0  0.0693963974599503  0.6482545926708247  0.7616713734859486  1.0000
  C   C26       1.0  0.004406240266378703  0.5767707097320582  0.8403020810273185  1.0000
  N   N3        1.0  0.1848674099224319  0.8252911660876991  0.049783365099637766  1.0000
  H   H17       1.0  0.8762396149457058  0.30374321544191174  0.1172865987908891  1.0000
  H   H18       1.0  0.0593270083869466  0.6754494296883664  0.17592598077743937  1.0000
  H   H19       1.0  0.1776911773790597  0.7846509263956654  0.7673794368173441  1.0000
  H   H20       1.0  0.07319754397304878  0.6442017125204371  0.64549814404316  1.0000
  H   H21       1.0  0.9175308351050417  0.3923050215660959  0.5733388902124483  1.0000
  H   H22       1.0  0.18235600613257197  0.8343603687910184  0.16117383233584404  1.0000
  H   H23       1.0  0.23263222628600944  0.879326533024313  0.9908744538232348  1.0000
  Zn  Zn1       1.0  0.9100138001788558  0.5815153097014714  0.41618585844556266  1.0000
  Zn  Zn2       1.0  0.09570771874403272  0.5794350058030056  0.4167983075401578  1.0000
  C   C27       1.0  0.003853825796656274  0.5724273792773151  0.6800656302533719  1.0000
  C   C28       1.0  0.0018697112156733642  0.5885247315024442  0.15291868985138612  1.0000
  C   C29       1.0  0.0013634255545507123  0.8438615285022868  0.4115779157215562  1.0000
  C   C30       1.0  0.0043600580834617375  0.3170888500335649  0.4214064756147904  1.0000
  O   O2        1.0  0.07252297343866165  0.5891870532072034  0.20692772798206893  1.0000
  O   O3        1.0  0.07413795568589276  0.5701850709714082  0.6265210079092418  1.0000
  O   O4        1.0  0.07212598148539251  0.7893715767483478  0.4097152804592785  1.0000
  O   O5        1.0  0.07453488382301798  0.37000055940025356  0.42373334704477883  1.0000
  O   O6        1.0  0.9311865717316132  0.7909497568157648  0.4092508187243564  1.0000
  O   O7        1.0  0.9331985359381733  0.5717649839942747  0.6260564747261466  1.0000
  O   O8        1.0  0.9315835477180092  0.5907669311531183  0.206461459477967  1.0000
  O   O9        1.0  0.933595458550252  0.37158042608772024  0.4232671867113458  1.0000
