data_image0
_chemical_formula_structural       NC9NC3OH6C9H8C6NCH9Zn2C4O8
_chemical_formula_sum              "N3 C32 O9 H23 Zn2"
_cell_length_a       15.78231758774541
_cell_length_b       9.275152443626249
_cell_length_c       9.273390368590327
_cell_angle_alpha    85.97038560770254
_cell_angle_beta     90.0787864382203
_cell_angle_gamma    90.20707041648352

_space_group_name_H-M_alt    "P 1"
_space_group_IT_number       1

loop_
  _space_group_symop_operation_xyz
  'x, y, z'

loop_
  _atom_site_type_symbol
  _atom_site_label
  _atom_site_symmetry_multiplicity
  _atom_site_fract_x
  _atom_site_fract_y
  _atom_site_fract_z
  _atom_site_occupancy
  N   N1        1.0  0.8071684091653012  0.5528605966535165  0.4075462852664302  1.0000
  C   C1        1.0  0.7580987008386525  0.461996160070431  0.4345824462268675  1.0000
  C   C2        1.0  0.6971769931613155  0.34921131180604315  0.4681412825332705  1.0000
  C   C3        1.0  0.7160012471844603  0.20753443069147237  0.5102084628333989  1.0000
  C   C4        1.0  0.6388643757636525  0.13887314742939694  0.5306785993262486  1.0000
  C   C5        1.0  0.577704184332245  0.24373074116689364  0.49958988269445226  1.0000
  C   C6        1.0  0.48449848630902753  0.22434525715364995  0.5054395501038376  1.0000
  C   C7        1.0  0.4314567603717966  0.3432125359684395  0.4700134467019479  1.0000
  C   C8        1.0  0.3431562095373958  0.3273169883003135  0.474817980420575  1.0000
  C   C9        1.0  0.2894384515527527  0.44964267498022137  0.4383519845730015  1.0000
  N   N2        1.0  0.24626217555022073  0.5479767297233216  0.4090365997978713  1.0000
  C   C10       1.0  0.3072150504766494  0.19237726851645398  0.5151035992455764  1.0000
  C   C11       1.0  0.359327298012713  0.07375579585533365  0.5504612955223245  1.0000
  C   C12       1.0  0.44743960251876697  0.08921465232853532  0.5457873385485887  1.0000
  O   O1        1.0  0.6148979372436307  0.36799947024105095  0.4626375558175513  1.0000
  H   H1        1.0  0.7781789394062408  0.15975530397368698  0.5243385940230589  1.0000
  H   H2        1.0  0.6294641836692039  0.02597472060107653  0.5642177274645355  1.0000
  H   H3        1.0  0.4586835928201042  0.4482195090415477  0.43865885217442924  1.0000
  H   H4        1.0  0.23901909145602643  0.17891454063907175  0.5191704340672998  1.0000
  H   H5        1.0  0.3313743978172662  0.9694667099429857  0.581602003860354  1.0000
  H   H6        1.0  0.485970063931089  0.9952581895743264  0.5738022794495883  1.0000
  C   C13       1.0  0.024219891821781747  0.12682977557470365  0.40975438420102406  1.0000
  C   C14       1.0  0.9936590623938097  0.20860766210710424  0.28720810120184237  1.0000
  C   C15       1.0  0.9709740310071037  0.1420928378598354  0.16239611869907433  1.0000
  C   C16       1.0  0.9784936468805185  0.992616645041738  0.1576594943369114  1.0000
  C   C17       1.0  0.0073976889764793  0.9091580406369616  0.27916535590721225  1.0000
  C   C18       1.0  0.029218717835702623  0.9739965478928623  0.40684097457679425  1.0000
  C   C19       1.0  0.9555425960762098  0.9243494674269701  0.02841067207035408  1.0000
  C   C20       1.0  0.9363264544509963  0.8671582212459329  0.9201850541907599  1.0000
  C   C21       1.0  0.9130114650158496  0.7977547539976814  0.7888722489809932  1.0000
  H   H7        1.0  0.14595627691585178  0.21018659531516093  0.6980050440307588  1.0000
  H   H8        1.0  0.9891959334980315  0.32516997083760946  0.28673959960810924  1.0000
  H   H9        1.0  0.9483239190985426  0.2075923905778927  0.06897559825616062  1.0000
  H   H10       1.0  0.010965089500611924  0.7927655976333849  0.2751568669339337  1.0000
  H   H11       1.0  0.1084640144679816  0.6799082592809094  0.6039811099062464  1.0000
  H   H12       1.0  0.9285000097780617  0.681003765516017  0.8023893366946435  1.0000
  H   H13       1.0  0.8440519808485705  0.8108946083361928  0.7689073857502282  1.0000
  H   H14       1.0  0.9487949953694337  0.8487137036513499  0.6957026814810865  1.0000
  C   C22       1.0  0.026732029719163775  0.5459145477652194  0.9850675278290626  1.0000
  C   C23       1.0  0.10453243298498527  0.5421829468278576  0.05894398643382592  1.0000
  C   C24       1.0  0.18105464920031045  0.5518755520078054  0.9837524506338937  1.0000
  C   C25       1.0  0.1817214361765669  0.5656689275709448  0.8320789913575761  1.0000
  C   C26       1.0  0.10442310412617073  0.566962160891084  0.7574030492608919  1.0000
  C   C27       1.0  0.026706593507821008  0.5549117683304037  0.8315278576726746  1.0000
  N   N3        1.0  0.25968546897808653  0.5770064557986503  0.7515131211897947  1.0000
  C   C28       1.0  0.34334062939705845  0.5762460161397427  0.8187846613371179  1.0000
  H   H15       1.0  0.8925922381280925  0.4781129354161946  0.27069191566056094  1.0000
  H   H16       1.0  0.10625046788647174  0.5352005708777763  0.17602202367531228  1.0000
  H   H17       1.0  0.23942312533986  0.5498989477940015  0.045076152173974426  1.0000
  H   H18       1.0  0.10509571947226726  0.5740627762997386  0.6402531141500929  1.0000
  H   H19       1.0  0.8285920331457098  0.44504422057150883  0.7357519893185365  1.0000
  H   H20       1.0  0.25699280723557805  0.5865968177902805  0.6385950814641066  1.0000
  H   H21       1.0  0.34938535324304465  0.668716740935525  0.8879536445145013  1.0000
  H   H22       1.0  0.353067103379737  0.4730218832947666  0.8847282668310332  1.0000
  H   H23       1.0  0.39305757520991214  0.5865985196075176  0.7340251171612922  1.0000
  Zn  Zn1       1.0  0.9338813585661636  0.55144745353222  0.40798468709069224  1.0000
  Zn  Zn2       1.0  0.11954912783484883  0.5493782251737047  0.408610020087782  1.0000
  C   C29       1.0  0.02667558595641184  0.5474646620231223  0.6715484931396405  1.0000
  C   C30       1.0  0.026756938665913  0.5533628156158152  0.1450463560663593  1.0000
  C   C31       1.0  0.028269639453480266  0.8138029696107629  0.40164845710024966  1.0000
  C   C32       1.0  0.02516281158508149  0.2870227765128537  0.41494647469088086  1.0000
  O   O2        1.0  0.0972252120252095  0.5550709679935308  0.19897404450218303  1.0000
  O   O3        1.0  0.09712484700380752  0.5441849206060199  0.618095006840075  1.0000
  O   O4        1.0  0.09841111548333914  0.7592564988053425  0.40014880979370515  1.0000
  O   O5        1.0  0.09593888025398156  0.3399993996703816  0.4169201332366099  1.0000
  O   O6        1.0  0.9574915427877428  0.7608262797431595  0.3996745737208831  1.0000
  O   O7        1.0  0.9562052845326869  0.5457564337667731  0.6176206879611408  1.0000
  O   O8        1.0  0.9563056493659496  0.5566424124694072  0.1984979930072579  1.0000
  O   O9        1.0  0.9550193175271302  0.34157083497770024  0.41644418983264675  1.0000
