data_image0
_chemical_formula_structural       NC9NC3OH6C7F3H5C7H8Zn2C4O8
_chemical_formula_sum              "N2 C30 O9 H19 F3 Zn2"
_cell_length_a       15.78231758774541
_cell_length_b       9.27228830945605
_cell_length_c       9.274345330872308
_cell_angle_alpha    84.82071203492734
_cell_angle_beta     89.64000707228583
_cell_angle_gamma    89.05832516092083

_space_group_name_H-M_alt    "P 1"
_space_group_IT_number       1

loop_
  _space_group_symop_operation_xyz
  'x, y, z'

loop_
  _atom_site_type_symbol
  _atom_site_label
  _atom_site_symmetry_multiplicity
  _atom_site_fract_x
  _atom_site_fract_y
  _atom_site_fract_z
  _atom_site_occupancy
  N   N1        1.0  0.7957717695605854  0.5828587695310272  0.40250796292718594  1.0000
  C   C1        1.0  0.747655271765578  0.4914463737860655  0.42974658221825357  1.0000
  C   C2        1.0  0.6879167283248638  0.3779813679135027  0.4635567190603165  1.0000
  C   C3        1.0  0.7082276198278228  0.23545170726071563  0.5059394519814069  1.0000
  C   C4        1.0  0.6318108626074083  0.16637562401280337  0.5265626315507159  1.0000
  C   C5        1.0  0.5695501852419347  0.2718635362952222  0.49524043294627806  1.0000
  C   C6        1.0  0.4765474966334526  0.252359657777137  0.5011334078345819  1.0000
  C   C7        1.0  0.4222590477320154  0.3719448235145466  0.4654423711617801  1.0000
  C   C8        1.0  0.3341249243541903  0.3559520501888238  0.47028242691731914  1.0000
  C   C9        1.0  0.2791242101173754  0.47901667807156345  0.4335437768262751  1.0000
  N   N2        1.0  0.2349166091764856  0.5779447722776974  0.4040092112490472  1.0000
  C   C10       1.0  0.2995987612424982  0.22019610820557123  0.5108688984711434  1.0000
  C   C11       1.0  0.3529551326402647  0.10085814460294129  0.546490986934917  1.0000
  C   C12       1.0  0.44090558800611274  0.11641158154447195  0.5417824818279837  1.0000
  O   O1        1.0  0.6054402010283064  0.3968812482957149  0.4580112506522067  1.0000
  H   H1        1.0  0.7709069108982622  0.1873860223809205  0.5201759211302768  1.0000
  H   H2        1.0  0.6235952578580131  0.052797331237977474  0.5603532385897443  1.0000
  H   H3        1.0  0.44838478577216906  0.47758705779776967  0.4338536526504635  1.0000
  H   H4        1.0  0.23154376812120292  0.20665107823031548  0.5149658153686005  1.0000
  H   H5        1.0  0.3260957971062558  0.9959381318781118  0.5778642193109949  1.0000
  H   H6        1.0  0.4804214423517037  0.02188744044880564  0.5700068525674031  1.0000
  C   C13       1.0  0.01783171875745526  0.15653229146685899  0.4054914065243238  1.0000
  C   C14       1.0  0.05860279647016231  0.23895864640084064  0.2916358109894439  1.0000
  C   C15       1.0  0.09102824678033361  0.17389099210467895  0.17271971902538774  1.0000
  C   C16       1.0  0.08239120635237374  0.02485358857320552  0.1634648071874527  1.0000
  C   C17       1.0  0.04470288837934899  0.9406962184553322  0.27916804067187573  1.0000
  C   C18       1.0  0.012864775399116457  0.004259996781364572  0.40103833944745837  1.0000
  C   C19       1.0  0.11958492418711808  0.9538668872521722  0.036819035160337465  1.0000
  F   F1        1.0  0.11940475363704639  0.04941560171221138  0.9131822537494934  1.0000
  F   F2        1.0  0.07304721020820937  0.8342452112732038  0.009148112560720234  1.0000
  F   F3        1.0  0.20207484278171184  0.9101471911730853  0.06835541046318783  1.0000
  H   H7        1.0  0.8742085345281191  0.23872819548218094  0.6646023666554881  1.0000
  H   H8        1.0  0.0639410104429019  0.3551517458787754  0.29314747135299823  1.0000
  H   H9        1.0  0.1222865911184452  0.2406743036447978  0.08718285220744248  1.0000
  H   H10       1.0  0.0420098476222428  0.8243123903373841  0.27591352253381585  1.0000
  H   H11       1.0  0.9718364951680362  0.8723552831389061  0.7504278342358508  1.0000
  C   C20       1.0  0.017246134964024273  0.5836201602948012  0.9794519092984673  1.0000
  C   C21       1.0  0.9661964557505921  0.6858558686028271  0.04400493044080833  1.0000
  C   C22       1.0  0.9101488019323757  0.7765403645568141  0.9613084142129695  1.0000
  C   C23       1.0  0.9031842514782988  0.7660006211338741  0.8123959628707458  1.0000
  C   C24       1.0  0.9555240510020153  0.6678085831925358  0.7458218287996519  1.0000
  C   C25       1.0  0.013450311982585506  0.5771721232236915  0.8270777767521862  1.0000
  C   C26       1.0  0.8442019971789814  0.8658110317184957  0.7231466440281693  1.0000
  H   H12       1.0  0.11636727179798201  0.26813756587976423  0.10977240966032875  1.0000
  H   H13       1.0  0.9683086626730523  0.693577339421269  0.1597886113766207  1.0000
  H   H14       1.0  0.8714480633431645  0.8540726306255497  0.013934843482520831  1.0000
  H   H15       1.0  0.9523353828286811  0.6645535392763138  0.629436091452249  1.0000
  H   H16       1.0  0.08325226257206753  0.36772729473879706  0.5645129771168849  1.0000
  H   H17       1.0  0.8782195942490957  0.96564156313658  0.683614490372201  1.0000
  H   H18       1.0  0.788422427272808  0.8958353596139437  0.7883770264159597  1.0000
  H   H19       1.0  0.8207088237642693  0.8127358200415407  0.6287438558143683  1.0000
  Zn  Zn1       1.0  0.9224994658767772  0.5814367771572966  0.4029495384610027  1.0000
  Zn  Zn2       1.0  0.10818890055997366  0.5793548942073996  0.4035794954496763  1.0000
  C   C27       1.0  0.014199624633110197  0.5726407070641804  0.6668885658221908  1.0000
  C   C28       1.0  0.01649075822128654  0.5881527617193016  0.13964060705341264  1.0000
  C   C29       1.0  0.013825008929484461  0.8440651991402794  0.3961288924002271  1.0000
  C   C30       1.0  0.016865320378373738  0.3167265355826099  0.41040036631451593  1.0000
  O   O2        1.0  0.08670545651553274  0.5888775832911255  0.19364049583467646  1.0000
  O   O3        1.0  0.08491891894288006  0.5703346987606668  0.6133663900862847  1.0000
  O   O4        1.0  0.08461545535963855  0.7895134079778774  0.39472602702179294  1.0000
  O   O5        1.0  0.08700885715963924  0.36969888593305056  0.41228075041809187  1.0000
  O   O6        1.0  0.9436794459104456  0.7910927861437189  0.39424828327001404  1.0000
  O   O7        1.0  0.9439828996735594  0.5719158116991743  0.6128885602727931  1.0000
  O   O8        1.0  0.945769445367658  0.5904586591294312  0.193160931110528  1.0000
  O   O9        1.0  0.9460728455842338  0.3712799506242934  0.4118012939524469  1.0000
