data_image0
_chemical_formula_structural       NC9NC3OH6C6NCOH7C6NCOH7Zn2C4O8
_chemical_formula_sum              "N4 C30 O11 H20 Zn2"
_cell_length_a       15.78231758774541
_cell_length_b       10.299619329790078
_cell_length_c       10.29962270195845
_cell_angle_alpha    85.58556334847248
_cell_angle_beta     90.10253899755935
_cell_angle_gamma    89.65730562172189

_space_group_name_H-M_alt    "P 1"
_space_group_IT_number       1

loop_
  _space_group_symop_operation_xyz
  'x, y, z'

loop_
  _atom_site_type_symbol
  _atom_site_label
  _atom_site_symmetry_multiplicity
  _atom_site_fract_x
  _atom_site_fract_y
  _atom_site_fract_z
  _atom_site_occupancy
  N   N1        1.0  0.7979722934218876  0.4127940164275268  0.5701103967649259  1.0000
  C   C1        1.0  0.7494221311437871  0.33073877525773  0.5941806811985417  1.0000
  C   C2        1.0  0.6891453064855811  0.22888827575242354  0.6240581053448631  1.0000
  C   C3        1.0  0.7087796180552112  0.10094760923739887  0.6615095576469232  1.0000
  C   C4        1.0  0.6320353504888244  0.03894257847937088  0.6797345461944089  1.0000
  C   C5        1.0  0.5702756338719427  0.13363332799563432  0.6520574641098784  1.0000
  C   C6        1.0  0.4771808013653838  0.1161264858958111  0.6572662968019596  1.0000
  C   C7        1.0  0.42345939807009303  0.22347026472262232  0.6257258287355203  1.0000
  C   C8        1.0  0.33524975605501023  0.20911507627915205  0.6300041071283073  1.0000
  C   C9        1.0  0.28083254312751227  0.31958207531518656  0.5975377066228929  1.0000
  N   N2        1.0  0.23709399527757682  0.4083832899344084  0.5714376218527102  1.0000
  C   C10       1.0  0.3000801952736323  0.08725634352327538  0.6658718289739414  1.0000
  C   C11       1.0  0.3528707160209386  0.9801344963790994  0.6973514449622114  1.0000
  C   C12       1.0  0.44089460880728754  0.994095324349989  0.6931894258862692  1.0000
  O   O1        1.0  0.6067588476412236  0.2458541425823264  0.6191590683242902  1.0000
  H   H1        1.0  0.7712304782894202  0.0578014099079347  0.6740886828976651  1.0000
  H   H2        1.0  0.6232806758240776  0.9369900077989728  0.7095938501122667  1.0000
  H   H3        1.0  0.4500857890851654  0.31829796457660486  0.5978096598309879  1.0000
  H   H4        1.0  0.2319612307789602  0.07509824419979938  0.6694931859347009  1.0000
  H   H5        1.0  0.3255141524332093  0.8859550880343787  0.7250771880298768  1.0000
  H   H6        1.0  0.4799623123895179  0.9092472802535239  0.7181317482792842  1.0000
  C   C13       1.0  0.017424796645043594  0.029221252414223686  0.5707398667067389  1.0000
  C   C14       1.0  0.9765305031683575  0.037683107302141305  0.4490737698584344  1.0000
  C   C15       1.0  0.9571886652638776  0.9252054919894305  0.3868745303366805  1.0000
  C   C16       1.0  0.9767828625189053  0.8025221484483099  0.4491745042660944  1.0000
  C   C17       1.0  0.017649545000602673  0.7919460342956376  0.5708194166096658  1.0000
  C   C18       1.0  0.03803949970256881  0.9059150997728389  0.6306698961018011  1.0000
  N   N3        1.0  0.9141658048191947  0.9376750752360887  0.2632803562955266  1.0000
  C   C19       1.0  0.9274669435739138  0.852829140649046  0.16113950543419242  1.0000
  O   O2        1.0  0.9869539205362617  0.770509040370209  0.16677872207578814  1.0000
  H   H7        1.0  0.09375900625552624  0.22046964650684675  0.8008784341707305  1.0000
  H   H8        1.0  0.9601005627293496  0.13193449526280832  0.4014270148262815  1.0000
  H   H9        1.0  0.9586547841952046  0.715295906130927  0.4041983300181624  1.0000
  H   H10       1.0  0.06957441480836946  0.8985163159885596  0.724453672650865  1.0000
  H   H11       1.0  0.032199393127925635  0.46037961446708864  0.6184274673801806  1.0000
  H   H12       1.0  0.8749411369863664  0.018663604029923953  0.2421293340627244  1.0000
  H   H13       1.0  0.8872247248549153  0.8620755042513751  0.07573920324747507  1.0000
  C   C20       1.0  0.01745652035811074  0.4104578353159902  0.18942258584059712  1.0000
  C   C21       1.0  0.9286756878964229  0.42136818343262417  0.18706175073486953  1.0000
  C   C22       1.0  0.88410440350813  0.42898973012045305  0.06891051715066676  1.0000
  C   C23       1.0  0.9288631223219095  0.4216446543802759  0.9518901534836353  1.0000
  C   C24       1.0  0.017617851003730367  0.4107094143686334  0.9521366254814403  1.0000
  C   C25       1.0  0.061433720299003625  0.40569900533621994  0.07140516097230587  1.0000
  N   N4        1.0  0.7931444318827425  0.4381389982878745  0.07051908532363416  1.0000
  C   C26       1.0  0.7434564593687347  0.5095214705361109  0.9723027124310906  1.0000
  O   O3        1.0  0.7776110796189234  0.5842481239652326  0.8853037515851558  1.0000
  H   H14       1.0  0.18485878426376146  0.3884880763992853  0.40123450848486275  1.0000
  H   H15       1.0  0.8936910243291972  0.425098950976488  0.2771120236722726  1.0000
  H   H16       1.0  0.8944732610438542  0.42174493195608065  0.8609339611428113  1.0000
  H   H17       1.0  0.12987503872693984  0.3973051210253644  0.07234770052327444  1.0000
  H   H18       1.0  0.05160049485221885  0.40454323040005313  0.624936001540878  1.0000
  H   H19       1.0  0.7609589690007698  0.3980829976241007  0.15251494868788118  1.0000
  H   H20       1.0  0.6751211830548518  0.5021081275436301  0.9749901717742131  1.0000
  Zn  Zn1       1.0  0.9246933279441655  0.4115177095475031  0.5705008981271729  1.0000
  Zn  Zn2       1.0  0.11037293138448256  0.40964900088876766  0.5710577353739723  1.0000
  C   C27       1.0  0.017583940781729757  0.40548822519170424  0.8079668304541157  1.0000
  C   C28       1.0  0.017484346672284046  0.4156801034932973  0.33359193676099963  1.0000
  C   C29       1.0  0.017601631851004385  0.647773124894589  0.5656293333728526  1.0000
  C   C30       1.0  0.017466591798355857  0.17339364415466818  0.5759295027260507  1.0000
  O   O4        1.0  0.08795812559601202  0.4167179134840724  0.3821878041756419  1.0000
  O   O5        1.0  0.08803668416783106  0.40303112872609104  0.7597932156889156  1.0000
  O   O6        1.0  0.0880500203212522  0.5986792593522299  0.5641039695098926  1.0000
  O   O7        1.0  0.08794472606486159  0.22106979275366356  0.5778769527939867  1.0000
  O   O8        1.0  0.9471214699004494  0.6000969183217171  0.5636816805103069  1.0000
  O   O9        1.0  0.9471081341883448  0.40445034797043267  0.7593708576086897  1.0000
  O   O10       1.0  0.9470295753292807  0.4181370869570502  0.38176388473879164  1.0000
  O   O11       1.0  0.9470161758125226  0.22248895697002147  0.5774531307209629  1.0000
