data_image0
_chemical_formula_structural       NC9NC3OH6C8H10C6OCH8Zn2C4O8
_chemical_formula_sum              "N2 C31 O10 H24 Zn2"
_cell_length_a       15.78231758774541
_cell_length_b       9.275653711864159
_cell_length_c       9.273891588657152
_cell_angle_alpha    86.25581090866153
_cell_angle_beta     89.76748324947235
_cell_angle_gamma    89.08352321082864

_space_group_name_H-M_alt    "P 1"
_space_group_IT_number       1

loop_
  _space_group_symop_operation_xyz
  'x, y, z'

loop_
  _atom_site_type_symbol
  _atom_site_label
  _atom_site_symmetry_multiplicity
  _atom_site_fract_x
  _atom_site_fract_y
  _atom_site_fract_z
  _atom_site_occupancy
  N   N1        1.0  0.7943144327577065  0.5547548675752962  0.4177255313481971  1.0000
  C   C1        1.0  0.7462070749883412  0.46388314738740455  0.4441624779026516  1.0000
  C   C2        1.0  0.6864798769896773  0.3510892577886702  0.47697754352739063  1.0000
  C   C3        1.0  0.7068049185338792  0.20940115763457245  0.518110417027704  1.0000
  C   C4        1.0  0.6303951144195743  0.14073430731708592  0.5381277621670002  1.0000
  C   C5        1.0  0.5681240172521241  0.24560013251675272  0.5077305451985672  1.0000
  C   C6        1.0  0.4751233725871723  0.22621296677321912  0.5134523775622513  1.0000
  C   C7        1.0  0.4208229002563084  0.3450898644711422  0.47881015291058393  1.0000
  C   C8        1.0  0.33269046203047953  0.3291929253504058  0.4835098659454409  1.0000
  C   C9        1.0  0.27767736397903864  0.45152852514529895  0.4478505550680836  1.0000
  N   N2        1.0  0.2334598064005766  0.5498705509968063  0.4191836407546756  1.0000
  C   C10       1.0  0.29817802799667525  0.19424217737484573  0.522905618923514  1.0000
  C   C11       1.0  0.3515464035438281  0.07561109812720779  0.5574810576990623  1.0000
  C   C12       1.0  0.43949521842319705  0.09107131004325297  0.5529090416411198  1.0000
  O   O1        1.0  0.6040015594492256  0.36987878671932695  0.47159772184899396  1.0000
  H   H1        1.0  0.7694889164068266  0.16161833603542464  0.5319254594240412  1.0000
  H   H2        1.0  0.6221908049537666  0.027826913815256926  0.570922367719938  1.0000
  H   H3        1.0  0.4469379485947981  0.45010542765797057  0.44814803114606483  1.0000
  H   H4        1.0  0.23012445939416934  0.18077827470699193  0.5268836757801032  1.0000
  H   H5        1.0  0.32469768517343234  0.9713134800897025  0.5879340274357776  1.0000
  H   H6        1.0  0.4790205914622014  0.9971072238244901  0.5803043806513324  1.0000
  C   C13       1.0  0.016273869992354584  0.12888490211866954  0.4171173801045529  1.0000
  C   C14       1.0  0.9968153240131131  0.21134756560030854  0.2884977356812821  1.0000
  C   C15       1.0  0.9696980088689279  0.14531277648794538  0.16543119356200386  1.0000
  C   C16       1.0  0.96330293399657  0.9948317345582847  0.17001568922143084  1.0000
  C   C17       1.0  0.9836851608367884  0.911146272534039  0.29586051819326853  1.0000
  C   C18       1.0  0.011508466634058356  0.9757294288763952  0.41980420100938276  1.0000
  C   C19       1.0  0.9503084980641974  0.23507759033574382  0.028025508991501136  1.0000
  C   C20       1.0  0.029882011736733993  0.2551947097780407  0.9355312673880203  1.0000
  H   H7        1.0  0.09252780407743644  0.39438300236323953  0.6171601583511854  1.0000
  H   H8        1.0  0.0008855071536810755  0.32808594980188865  0.2846278674600411  1.0000
  H   H9        1.0  0.9433268302383039  0.9419601440196096  0.07540135165143713  1.0000
  H   H10       1.0  0.9797695888562397  0.7947107670930526  0.29496765037229  1.0000
  H   H11       1.0  0.018690465529015654  0.678686648652199  0.6575260893383594  1.0000
  H   H12       1.0  0.9011181391659158  0.18217886841629238  0.965182742757408  1.0000
  H   H13       1.0  0.9245073127597622  0.3427584334227842  0.0534885871905455  1.0000
  H   H14       1.0  0.07906445321168687  0.31138099746631576  0.9952045685657809  1.0000
  H   H15       1.0  0.05541507334234197  0.14873665453185492  0.9059557258234912  1.0000
  H   H16       1.0  0.014235973332815677  0.32152020178245966  0.8348747561017409  1.0000
  C   C21       1.0  0.015300832312473922  0.5484729401339623  0.9951779659083844  1.0000
  C   C22       1.0  0.08435195657409311  0.6086041356593288  0.06417530717188447  1.0000
  C   C23       1.0  0.14853599050427713  0.6795558470510163  0.9848074048621336  1.0000
  C   C24       1.0  0.14389782407127205  0.6907351017803289  0.8333869076364624  1.0000
  C   C25       1.0  0.07663185121648275  0.6297110296397246  0.7630505093561584  1.0000
  C   C26       1.0  0.0124814939162039  0.5561413734051777  0.8417436204639008  1.0000
  O   O2        1.0  0.2152829778861629  0.7379374588213738  0.06042433753519316  1.0000
  C   C27       1.0  0.2846346289729349  0.8130463294876824  0.9938204196232956  1.0000
  H   H17       1.0  0.8142458091856907  0.4621533713704644  0.10524499923042385  1.0000
  H   H18       1.0  0.08760501266207243  0.6035412620011418  0.18110401659597097  1.0000
  H   H19       1.0  0.19240085686451747  0.7452528100186817  0.7688015409268898  1.0000
  H   H20       1.0  0.07590630697501388  0.6371500434876889  0.6459906412211933  1.0000
  H   H21       1.0  0.8784398251963629  0.49229568147744884  0.5656473797782859  1.0000
  H   H22       1.0  0.26133961604696654  0.9108746730922728  0.9296589026140181  1.0000
  H   H23       1.0  0.3203690657772178  0.7410915228282324  0.9232980146660581  1.0000
  H   H24       1.0  0.32781671571282645  0.8470292982754763  0.0789173377232939  1.0000
  Zn  Zn1       1.0  0.9210422918591208  0.5533415831067092  0.41815461503347695  1.0000
  Zn  Zn2       1.0  0.10673194578896772  0.551272173777809  0.4187663028246098  1.0000
  C   C28       1.0  0.013044857012578293  0.5489476861235634  0.6817063716875296  1.0000
  C   C29       1.0  0.014731397651781108  0.5556678687777892  0.15521470009801752  1.0000
  C   C30       1.0  0.01242400348575945  0.815605833376581  0.4135524002022557  1.0000
  C   C31       1.0  0.015352197308279747  0.28900799054796855  0.42336874272633573  1.0000
  O   O3        1.0  0.08500858151301283  0.557290931919322  0.20915660241595702  1.0000
  O   O4        1.0  0.08370183142097454  0.5457528976553925  0.6282283078651487  1.0000
  O   O5        1.0  0.08319952940907349  0.7610827480779616  0.4116920802845294  1.0000
  O   O6        1.0  0.08551082046349645  0.3419610915386928  0.4256927217440536  1.0000
  O   O7        1.0  0.9422633538178423  0.7626526660535142  0.4112281958977173  1.0000
  O   O8        1.0  0.9427656463333137  0.5473245473154364  0.6277643521189764  1.0000
  O   O9        1.0  0.9440724025358909  0.5588625156336033  0.20869091350586522  1.0000
  O   O10       1.0  0.9445746411810422  0.3435326659187232  0.42522714087016933  1.0000
