data_image0
_chemical_formula_structural       NC9NC3OH6C6FH5C6ClH5Zn2C4O8
_chemical_formula_sum              "N2 C28 O9 H16 F1 Cl1 Zn2"
_cell_length_a       15.78231758774541
_cell_length_b       9.275642734913903
_cell_length_c       10.302974078461048
_cell_angle_alpha    85.47815817126667
_cell_angle_beta     90.08385130592438
_cell_angle_gamma    90.2347076146716

_space_group_name_H-M_alt    "P 1"
_space_group_IT_number       1

loop_
  _space_group_symop_operation_xyz
  'x, y, z'

loop_
  _atom_site_type_symbol
  _atom_site_label
  _atom_site_symmetry_multiplicity
  _atom_site_fract_x
  _atom_site_fract_y
  _atom_site_fract_z
  _atom_site_occupancy
  N   N1        1.0  0.8075676625847787  0.5694548965264021  0.568374196661042  1.0000
  C   C1        1.0  0.7584728044447151  0.4783223802502712  0.5925630052208879  1.0000
  C   C2        1.0  0.6975198797474018  0.36520477579127464  0.6225875465125179  1.0000
  C   C3        1.0  0.7163049175141915  0.22311083598647108  0.6602238255082093  1.0000
  C   C4        1.0  0.6391490428470626  0.15424655035535784  0.6785383659143851  1.0000
  C   C5        1.0  0.5780178773105278  0.2594123283156866  0.6507244785243627  1.0000
  C   C6        1.0  0.4848068159038461  0.2399687832797759  0.6559585768635521  1.0000
  C   C7        1.0  0.4317979889519406  0.35918737424716696  0.6242630724050806  1.0000
  C   C8        1.0  0.3434930405105295  0.34324413346517435  0.6285620658719724  1.0000
  C   C9        1.0  0.289809138449195  0.4659314511814914  0.5959361205871805  1.0000
  N   N2        1.0  0.24666007819804914  0.5645562258088919  0.5697077827851815  1.0000
  C   C10       1.0  0.307514535959697  0.2079048615679031  0.6646057693233629  1.0000
  C   C11       1.0  0.35959395267349414  0.08893275168608783  0.6962400998615805  1.0000
  C   C12       1.0  0.4477105339348156  0.10443800607002762  0.6920579351698755  1.0000
  O   O1        1.0  0.6152460264295615  0.3840474453761178  0.6176639799417689  1.0000
  H   H1        1.0  0.7784693829113661  0.17519166193700864  0.6728652962238721  1.0000
  H   H2        1.0  0.6297176008498137  0.04101560081239719  0.7085449488256967  1.0000
  H   H3        1.0  0.45905388265594455  0.4645053254066147  0.5962099600253519  1.0000
  H   H4        1.0  0.2393148523236652  0.19440176513937613  0.6682446715129402  1.0000
  H   H5        1.0  0.331612189914306  0.9843348086982774  0.7241018500605434  1.0000
  H   H6        1.0  0.4862149912990229  0.010203716628547355  0.7171227999040173  1.0000
  C   C13       1.0  0.02449786022502476  0.14349078869406506  0.5695912671798511  1.0000
  C   C14       1.0  0.008098175007749342  0.2269866073234894  0.45225776344720203  1.0000
  C   C15       1.0  0.9996906725242666  0.16180338509883985  0.33534902050509263  1.0000
  C   C16       1.0  0.007619482496857177  0.012424166698936867  0.3337078716150539  1.0000
  C   C17       1.0  0.022487837348327933  0.9273559439121217  0.4492206053114596  1.0000
  C   C18       1.0  0.029737915284843597  0.990509161297095  0.5685019437229297  1.0000
  F   F1        1.0  0.984818750920749  0.24406876825272383  0.2230064560659557  1.0000
  H   H7        1.0  0.11205032583380903  0.22165982743706292  0.8598440536696019  1.0000
  H   H8        1.0  0.0037721252827582763  0.3436602491280827  0.45058309182936074  1.0000
  H   H9        1.0  0.001433212733119138  0.9620318428563449  0.24289173617779736  1.0000
  H   H10       1.0  0.026314071672821182  0.8111533323165219  0.44566415960246153  1.0000
  H   H11       1.0  0.08529953152616598  0.6924650478189263  0.7655591645987894  1.0000
  C   C19       1.0  0.027117885708846545  0.5669999972908382  0.1878041208123229  1.0000
  C   C20       1.0  0.01145326975107852  0.4173724830333281  0.1971856686808453  1.0000
  C   C21       1.0  0.0036809579811869497  0.34313138537533727  0.08488374579873437  1.0000
  C   C22       1.0  0.01145330814861234  0.4173725640600916  0.9620777697200782  1.0000
  C   C23       1.0  0.027117883087142802  0.5669999228696967  0.9502891399749189  1.0000
  C   C24       1.0  0.03487384844339814  0.6410843397508053  0.0638057004515058  1.0000
  Cl  Cl1       1.0  0.9841121340305234  0.15621107371377652  0.09810707058326673  1.0000
  H   H12       1.0  0.03301896470968324  0.6233620938930309  0.511573194227831  1.0000
  H   H13       1.0  0.005223097708280333  0.3578621263774646  0.2914421590969609  1.0000
  H   H14       1.0  0.00522315678694274  0.3578621051378206  0.876241193229335  1.0000
  H   H15       1.0  0.04695483242983789  0.7564815701906753  0.055642044005994595  1.0000
  H   H16       1.0  0.0330188034087362  0.6233620829291322  0.6185455632732189  1.0000
  Zn  Zn1       1.0  0.9342802213349867  0.5680373936339114  0.5687665367461952  1.0000
  Zn  Zn2       1.0  0.11994741813530618  0.565961957862412  0.569326070637765  1.0000
  C   C25       1.0  0.027080438085701708  0.5612545540904215  0.8061705008800049  1.0000
  C   C26       1.0  0.027149240122125606  0.5727465944488053  0.33192223769801465  1.0000
  C   C27       1.0  0.028743056661781674  0.8304047115342308  0.5635343935105213  1.0000
  C   C28       1.0  0.0254865474713335  0.30359470497855656  0.5745584163206265  1.0000
  O   O2        1.0  0.09761945759828894  0.5738812960183075  0.38050194254757597  1.0000
  O   O3        1.0  0.0975273202036746  0.5585435567991544  0.7580150969845174  1.0000
  O   O4        1.0  0.09886895589960276  0.7758857234207308  0.5620847188019154  1.0000
  O   O5        1.0  0.09627775861055055  0.3565391404218441  0.5764322231835897  1.0000
  O   O6        1.0  0.9579498175006502  0.7774602117842937  0.5616603840025987  1.0000
  O   O7        1.0  0.9566081925203418  0.5601197778989708  0.7575906907343  1.0000
  O   O8        1.0  0.956700329660424  0.5754574668602863  0.3800759754790701  1.0000
  O   O9        1.0  0.9553586306054034  0.3581153009485243  0.5760063534639006  1.0000
