data_image0
_chemical_formula_structural       NC9NC3OH6C6NCH9C7OH6Zn2C4O8
_chemical_formula_sum              "N3 C30 O10 H21 Zn2"
_cell_length_a       15.78231758774541
_cell_length_b       9.273386996610926
_cell_length_c       9.274081674992354
_cell_angle_alpha    85.9730649640205
_cell_angle_beta     89.75780300142802
_cell_angle_gamma    89.03191128213776

_space_group_name_H-M_alt    "P 1"
_space_group_IT_number       1

loop_
  _space_group_symop_operation_xyz
  'x, y, z'

loop_
  _atom_site_type_symbol
  _atom_site_label
  _atom_site_symmetry_multiplicity
  _atom_site_fract_x
  _atom_site_fract_y
  _atom_site_fract_z
  _atom_site_occupancy
  N   N1        1.0  0.7936605401707754  0.5558130650881479  0.41020387778530387  1.0000
  C   C1        1.0  0.7455978989814196  0.46488550542842333  0.437081333208613  1.0000
  C   C2        1.0  0.6859262050877994  0.3520223054388203  0.47044317739265296  1.0000
  C   C3        1.0  0.7063209778199606  0.2102471478152379  0.5122628979312751  1.0000
  C   C4        1.0  0.6299449596373663  0.14153809895143232  0.5326131112860495  1.0000
  C   C5        1.0  0.5676222486860315  0.24646835271704282  0.5017075462720797  1.0000
  C   C6        1.0  0.4746311361191049  0.2270692663908167  0.5075233585773855  1.0000
  C   C7        1.0  0.4202721719811768  0.3460192176357919  0.47230486820627116  1.0000
  C   C8        1.0  0.3321475490277285  0.33011250324216523  0.4770816420842334  1.0000
  C   C9        1.0  0.2770742582634796  0.4525232828990662  0.44082929926242165  1.0000
  N   N2        1.0  0.23280831365718282  0.5509257437825319  0.4116856638591744  1.0000
  C   C10       1.0  0.2977015088976875  0.19507881752350542  0.5171315791861717  1.0000
  C   C11       1.0  0.3511282548231096  0.07637483535067768  0.5522820919905806  1.0000
  C   C12       1.0  0.4390694692737225  0.09184455411812475  0.5476351321554822  1.0000
  O   O1        1.0  0.603438632993373  0.3708233724119794  0.46497227061501634  1.0000
  H   H1        1.0  0.7690284973703214  0.16243497214925462  0.526309573026742  1.0000
  H   H2        1.0  0.6217962153922569  0.028561330178656696  0.5659550463362868  1.0000
  H   H3        1.0  0.4463355546302744  0.451099321541772  0.4411336754976327  1.0000
  H   H4        1.0  0.22965455966766501  0.18160663590932447  0.5211749027074333  1.0000
  H   H5        1.0  0.32433084888016345  0.972013117787595  0.5832406523712763  1.0000
  H   H6        1.0  0.4786410748188313  0.9978227228641054  0.5754859697699353  1.0000
  C   C13       1.0  0.015841791741844524  0.129692737570392  0.4116618401809269  1.0000
  C   C14       1.0  0.031167943916228902  0.21183334856798397  0.28138968095490946  1.0000
  C   C15       1.0  0.03851564099445581  0.14608419168738784  0.15108254484305683  1.0000
  C   C16       1.0  0.030653008392262926  0.9958411854117992  0.14771567411462128  1.0000
  C   C17       1.0  0.016821704014776007  0.9127169788401245  0.27754016130746817  1.0000
  C   C18       1.0  0.010635154735328056  0.9770349940493663  0.41024022107040703  1.0000
  N   N3        1.0  0.03729361302662837  0.9250394310036409  0.01471532055513114  1.0000
  C   C19       1.0  0.051892748336800354  0.0015167294355740157  0.874110225436656  1.0000
  H   H7        1.0  0.03234128367718081  0.39376814652829917  0.6483544740086842  1.0000
  H   H8        1.0  0.03549602774401728  0.3284152746183544  0.27963594792713886  1.0000
  H   H9        1.0  0.0495379874731805  0.21368886974919543  0.05321398177508363  1.0000
  H   H10       1.0  0.012829865953853492  0.7963400185767204  0.27525288599553455  1.0000
  H   H11       1.0  0.04062942248962442  0.8484758996261703  0.7614014311844355  1.0000
  H   H12       1.0  0.03129255378718665  0.8127657996672576  0.017683946760518987  1.0000
  H   H13       1.0  0.9994478245760563  0.08045019719518831  0.8488901110964413  1.0000
  H   H14       1.0  0.11322479333258006  0.05838798801202483  0.8745497576049925  1.0000
  H   H15       1.0  0.05432187026138102  0.9232906954506483  0.788788825818016  1.0000
  C   C20       1.0  0.01469178601930099  0.5495658938204415  0.9876924585573974  1.0000
  C   C21       1.0  0.08312508173192623  0.6115902393938084  0.05634539552485207  1.0000
  C   C22       1.0  0.14669433831277812  0.6843116159266973  0.9759552543223387  1.0000
  C   C23       1.0  0.14181070695513198  0.6954001029701897  0.8247977891120324  1.0000
  C   C24       1.0  0.07515812587422532  0.6325333618678592  0.7549493964551677  1.0000
  C   C25       1.0  0.011785183088954154  0.55716184318235  0.8342095313344928  1.0000
  C   C26       1.0  0.21708579761220048  0.7491860311673577  0.05152888952298307  1.0000
  O   O2        1.0  0.2749885934239302  0.8157553878098356  0.9822731541913576  1.0000
  H   H16       1.0  0.814496529617814  0.45807895296168577  0.09854105411103742  1.0000
  H   H17       1.0  0.08595787634159269  0.6062035959649608  0.1734031651029453  1.0000
  H   H18       1.0  0.1899801466604003  0.7515243877768567  0.7602585634483732  1.0000
  H   H19       1.0  0.07432635050672709  0.639996471842234  0.6378604784973434  1.0000
  H   H20       1.0  0.878374887069265  0.48962363052864877  0.5587894101674378  1.0000
  H   H21       1.0  0.21961249294906504  0.7399864284870741  0.16845980277814232  1.0000
  Zn  Zn1       1.0  0.9203890929643781  0.5543989105440514  0.41063981225418456  1.0000
  Zn  Zn2       1.0  0.10607976427004884  0.5523282287129974  0.41126153156451517  1.0000
  C   C27       1.0  0.012368014717479392  0.5499784477987626  0.6742093496986585  1.0000
  C   C28       1.0  0.01410285858182947  0.5567504905183716  0.1476921393223689  1.0000
  C   C29       1.0  0.011634693947885966  0.8168177945842368  0.40476528579927606  1.0000
  C   C30       1.0  0.014836126375438186  0.2899094117317831  0.41713628276166403  1.0000
  O   O3        1.0  0.08437388985545757  0.55836959955941  0.20162544360074874  1.0000
  O   O4        1.0  0.08303191448772318  0.5467866470276332  0.6207475029079537  1.0000
  O   O5        1.0  0.08243879359519735  0.7622628182423505  0.403169509250201  1.0000
  O   O6        1.0  0.08496694769198965  0.3428934384023874  0.41920332895871315  1.0000
  O   O7        1.0  0.9415018461753408  0.7638337015627856  0.40269801464024013  1.0000
  O   O8        1.0  0.942094956676755  0.5483592630573075  0.6202759285383337  1.0000
  O   O9        1.0  0.9434369383598957  0.559942149762255  0.20115213641039964  1.0000
  O   O10       1.0  0.9440299958853257  0.34446597925566236  0.4187301298484065  1.0000
