data_image0
_chemical_formula_structural       NC9NC3OH6C6NH7C8H10Zn2C4O8
_chemical_formula_sum              "N3 C30 O9 H23 Zn2"
_cell_length_a       15.78231758774541
_cell_length_b       9.274771166103582
_cell_length_c       9.275657083861812
_cell_angle_alpha    85.75447622105524
_cell_angle_beta     89.58874472212382
_cell_angle_gamma    90.23039320205511

_space_group_name_H-M_alt    "P 1"
_space_group_IT_number       1

loop_
  _space_group_symop_operation_xyz
  'x, y, z'

loop_
  _atom_site_type_symbol
  _atom_site_label
  _atom_site_symmetry_multiplicity
  _atom_site_fract_x
  _atom_site_fract_y
  _atom_site_fract_z
  _atom_site_occupancy
  N   N1        1.0  0.8155548568424503  0.5613919730939676  0.4097942331046953  1.0000
  C   C1        1.0  0.7663277951391099  0.47038776576514185  0.43668773300227515  1.0000
  C   C2        1.0  0.7052107717143887  0.35742942591773486  0.47006949232485473  1.0000
  C   C3        1.0  0.7237901216247677  0.2155350903729838  0.5119142190594068  1.0000
  C   C4        1.0  0.6465341433051847  0.1467679705299767  0.5322765611849851  1.0000
  C   C5        1.0  0.5855549781686559  0.25178625645336816  0.5013524941446337  1.0000
  C   C6        1.0  0.49231529813039154  0.23237050942727522  0.5071717392417316  1.0000
  C   C7        1.0  0.4394797108004165  0.35142094835789184  0.4719322528341867  1.0000
  C   C8        1.0  0.3511512554964305  0.335500542555355  0.47671184245939635  1.0000
  C   C9        1.0  0.2976456799304867  0.45801476822761966  0.44043789162773694  1.0000
  N   N2        1.0  0.2546399784153447  0.5565003917614808  0.4112768860033167  1.0000
  C   C10       1.0  0.3149757351911416  0.2003525196578655  0.5167856228614767  1.0000
  C   C11       1.0  0.3668822459473453  0.08154823927969335  0.5519570888657348  1.0000
  C   C12       1.0  0.4550216954529834  0.0970312786658536  0.5473073904694696  1.0000
  O   O1        1.0  0.6229638156161561  0.376246014475317  0.4645952783838663  1.0000
  H   H1        1.0  0.7858855076694928  0.16768293691772174  0.5259693204641154  1.0000
  H   H2        1.0  0.6369387084308027  0.03369616814561005  0.5656384250182449  1.0000
  H   H3        1.0  0.4668889442487497  0.45659004666664926  0.4407425051902769  1.0000
  H   H4        1.0  0.24675615440118057  0.1868687510346696  0.5208313308956145  1.0000
  H   H5        1.0  0.3387481893716567  0.9770981339490509  0.5829340773861571  1.0000
  H   H6        1.0  0.49338915272584494  0.002929969566924484  0.5751748255770985  1.0000
  C   C13       1.0  0.0324963259693869  0.13538265527578464  0.41131249801337044  1.0000
  C   C14       1.0  0.013653195336847057  0.2182391355619051  0.28233837542385376  1.0000
  C   C15       1.0  0.0027246735405579425  0.152645105977806  0.15257309640907857  1.0000
  C   C16       1.0  0.010688460786059784  0.002811748505770595  0.15084247128496386  1.0000
  C   C17       1.0  0.0279738522278119  0.918644097318177  0.2780404806348913  1.0000
  C   C18       1.0  0.037706474439098914  0.9824986432132196  0.40977114582081664  1.0000
  N   N3        1.0  0.9844092675771765  0.23858792735941559  0.022183954707625464  1.0000
  H   H7        1.0  0.12624883013864951  0.21561911894484354  0.7271127100381618  1.0000
  H   H8        1.0  0.0093840547824251  0.3348765588825686  0.28177022642920635  1.0000
  H   H9        1.0  0.0026810661401863722  0.9509010100208828  0.05100253516912856  1.0000
  H   H10       1.0  0.03172861060100929  0.8024170454400427  0.273924676253009  1.0000
  H   H11       1.0  0.09740768190950244  0.6858698091348417  0.6246133154798366  1.0000
  H   H12       1.0  0.978572047316698  0.3507266166849705  0.022117423785276147  1.0000
  H   H13       1.0  0.9764696229229171  0.19070581957782728  0.9247149224464444  1.0000
  C   C19       1.0  0.03724617176946299  0.5567422456725564  0.9872331708953284  1.0000
  C   C20       1.0  0.08181086182049802  0.6662045919327368  0.05212168148557916  1.0000
  C   C21       1.0  0.11893234163726119  0.781923646034685  0.9682947316162589  1.0000
  C   C22       1.0  0.11274053166705889  0.7871823090847483  0.817625387440625  1.0000
  C   C23       1.0  0.07000975831914524  0.6783453633628771  0.7512892770121193  1.0000
  C   C24       1.0  0.03295661191704524  0.5611389992615403  0.8338504700557183  1.0000
  C   C25       1.0  0.1674492738680382  0.8970563148990958  0.03944558987357305  1.0000
  C   C26       1.0  0.2602590703262846  0.8548612854842468  0.057679333964525625  1.0000
  H   H14       1.0  0.9978002174752482  0.3270639926539105  0.2853504966353628  1.0000
  H   H15       1.0  0.08617506167447386  0.6634816800421841  0.16886636500546337  1.0000
  H   H16       1.0  0.1418459841330486  0.8750211239453278  0.7511751949365033  1.0000
  H   H17       1.0  0.06786404620217024  0.6839906538592069  0.6342973668151481  1.0000
  H   H18       1.0  0.9318985424843418  0.3960191775366706  0.5659807679021123  1.0000
  H   H19       1.0  0.16345330045553363  0.001819716669454241  0.9733990822347134  1.0000
  H   H20       1.0  0.13936988881996326  0.9137058246813947  0.14719720756925891  1.0000
  H   H21       1.0  0.2656594762610103  0.7521858159794492  0.12663458942806805  1.0000
  H   H22       1.0  0.28999324900127954  0.8412543111675455  0.9506293527405352  1.0000
  H   H23       1.0  0.29486355457308044  0.9410655476227043  0.11020344457586462  1.0000
  Zn  Zn1       1.0  0.9422652686838521  0.5599765587972392  0.41023041924901893  1.0000
  Zn  Zn2       1.0  0.1279294059720928  0.557904095061158  0.410852505091188  1.0000
  C   C27       1.0  0.03373020153650441  0.5545618587469519  0.673832098454616  1.0000
  C   C28       1.0  0.036466511042474004  0.5633205931312071  0.14725097085142358  1.0000
  C   C29       1.0  0.03674637886768428  0.8223458752260329  0.404318161410818  1.0000
  C   C30       1.0  0.0334502593094026  0.2955348448241959  0.4167649876890418  1.0000
  O   O2        1.0  0.10666338358206318  0.5647355648469072  0.20119049608221307  1.0000
  O   O3        1.0  0.10444810863304466  0.5515728447352297  0.6203643090053963  1.0000
  O   O4        1.0  0.1068827525630851  0.7678118430196557  0.40272989207530685  1.0000
  O   O5        1.0  0.104228676908515  0.34849657702645165  0.4188248046981442  1.0000
  O   O6        1.0  0.9659659343894197  0.7693840775407064  0.40225811942219014  1.0000
  O   O7        1.0  0.9635313015032612  0.5531468117929716  0.6198924563385872  1.0000
  O   O8        1.0  0.9657465849806391  0.5663094726403142  0.20071691039674966  1.0000
  O   O9        1.0  0.9633118776925889  0.3500704750646497  0.41835132710696743  1.0000
