data_image0
_chemical_formula_structural       NC9NC3OH6C9H8C7OH6Zn2C4O8
_chemical_formula_sum              "N2 C32 O10 H20 Zn2"
_cell_length_a       15.78231758774541
_cell_length_b       9.275152443626249
_cell_length_c       9.274081674992354
_cell_angle_alpha    85.87685954028238
_cell_angle_beta     89.75780300142802
_cell_angle_gamma    90.20707041648352

_space_group_name_H-M_alt    "P 1"
_space_group_IT_number       1

loop_
  _space_group_symop_operation_xyz
  'x, y, z'

loop_
  _atom_site_type_symbol
  _atom_site_label
  _atom_site_symmetry_multiplicity
  _atom_site_fract_x
  _atom_site_fract_y
  _atom_site_fract_z
  _atom_site_occupancy
  N   N1        1.0  0.8124164703328324  0.5554996275076445  0.40746463184252946  1.0000
  C   C1        1.0  0.7632576621314793  0.4645903863174976  0.43450217908822664  1.0000
  C   C2        1.0  0.7022253585705586  0.35174992400064364  0.46806273613154104  1.0000
  C   C3        1.0  0.7209109767681731  0.21000332871747163  0.5101320734358405  1.0000
  C   C4        1.0  0.6437066443421079  0.14130812213235533  0.5306032595395629  1.0000
  C   C5        1.0  0.5826489083133245  0.24621723641430937  0.4995129488267993  1.0000
  C   C6        1.0  0.48942393223380315  0.2268220582714111  0.5053629161792019  1.0000
  C   C7        1.0  0.4364989559112457  0.345748045593113  0.4699349962958592  1.0000
  C   C8        1.0  0.3481825713439059  0.32984453580175166  0.4747397763680379  1.0000
  C   C9        1.0  0.2945849900243502  0.4522306543091459  0.43827191071829086  1.0000
  N   N2        1.0  0.2515053252645981  0.5506132908127124  0.40895502279018525  1.0000
  C   C10       1.0  0.31210864773885333  0.19483805427149226  0.5150274608472436  1.0000
  C   C11       1.0  0.3641043711015065  0.07615798646845873  0.5503869700978543  1.0000
  C   C12       1.0  0.4522320790141811  0.09162458867175638  0.5457127734659188  1.0000
  O   O1        1.0  0.6199644406333917  0.3705472032687913  0.4625587272109912  1.0000
  H   H1        1.0  0.7830421019895428  0.16220078539935634  0.5242629291511691  1.0000
  H   H2        1.0  0.6341959213139516  0.028354113912150147  0.5641441074042202  1.0000
  H   H3        1.0  0.4638291199844796  0.4508069798262926  0.4385787940544239  1.0000
  H   H4        1.0  0.2438992861322051  0.18136858679315737  0.5190945041968407  1.0000
  H   H5        1.0  0.3360488441605248  0.971817293850457  0.5815292751827374  1.0000
  H   H6        1.0  0.4906702149026321  0.9976216992661914  0.5737291508393407  1.0000
  C   C13       1.0  0.02946067601908453  0.12946514714431734  0.4096728439978956  1.0000
  C   C14       1.0  0.9993037078670057  0.2114461186511205  0.2871202774103738  1.0000
  C   C15       1.0  0.9770300045537972  0.14513813411902943  0.1623018951450126  1.0000
  C   C16       1.0  0.9845652303593251  0.9956697908840761  0.15756502791136562  1.0000
  C   C17       1.0  0.013068839973114033  0.9120098257021072  0.2790771197221622  1.0000
  C   C18       1.0  0.0344691034121678  0.9766367475951988  0.4067592849879287  1.0000
  C   C19       1.0  0.9620401295960196  0.9276168057614761  0.028309578382253786  1.0000
  C   C20       1.0  0.9431806543261739  0.8706049121997012  0.9200784112096594  1.0000
  C   C21       1.0  0.9202984169562489  0.801419057897612  0.7887588729061457  1.0000
  H   H7        1.0  0.15024710754127257  0.21234427489412222  0.6979382839453179  1.0000
  H   H8        1.0  0.9948421229564611  0.32800920378733855  0.28665175179411584  1.0000
  H   H9        1.0  0.954687767593846  0.21079250429493634  0.06887658454381285  1.0000
  H   H10       1.0  0.016649450799767207  0.7956240256081367  0.275068425212706  1.0000
  H   H11       1.0  0.11306470864104079  0.6822217563011472  0.6039095287223466  1.0000
  H   H12       1.0  0.9357424150528518  0.6846456687576407  0.8022766537115227  1.0000
  H   H13       1.0  0.8514047286249598  0.8145919982150608  0.7687929859725093  1.0000
  H   H14       1.0  0.9563889952225403  0.8525324091273035  0.6955845281156212  1.0000
  C   C22       1.0  0.033372404107795406  0.5492537148090371  0.9849642117114512  1.0000
  C   C23       1.0  0.10255342737203077  0.6112655648189942  0.05350794536857428  1.0000
  C   C24       1.0  0.16699936836320584  0.6839722907406864  0.9729897671029382  1.0000
  C   C25       1.0  0.1622494130192511  0.6950585438727739  0.821812778921764  1.0000
  C   C26       1.0  0.09483894898177958  0.6322044680447407  0.7520750727409062  1.0000
  C   C27       1.0  0.030557373294268775  0.5568481338739948  0.831467910662385  1.0000
  C   C28       1.0  0.23817291390991713  0.748833636236526  0.048449181011369635  1.0000
  O   O2        1.0  0.2968782291451797  0.8153895816674968  0.9790762401849529  1.0000
  H   H15       1.0  0.8320742371369144  0.4577852051140463  0.0959738839633062  1.0000
  H   H16       1.0  0.10532128390512052  0.6058800065953818  0.17057519895312567  1.0000
  H   H17       1.0  0.21109545275433717  0.7511715217554709  0.7571747379036786  1.0000
  H   H18       1.0  0.09409714430074256  0.6396660744842848  0.6349730148409023  1.0000
  H   H19       1.0  0.8963328779159109  0.4893235276196999  0.5561667008087432  1.0000
  H   H20       1.0  0.24058870446698388  0.7396358869287782  0.16539629156868663  1.0000
  Zn  Zn1       1.0  0.9391279749447078  0.5540857578622862  0.407903056145944  1.0000
  Zn  Zn2       1.0  0.12479368337747121  0.5520154931954262  0.40852842120712474  1.0000
  C   C29       1.0  0.031053606304255243  0.5496661856733114  0.6714803764885771  1.0000
  C   C30       1.0  0.03287008977117334  0.5564368640820443  0.14495124289929984  1.0000
  C   C31       1.0  0.03353713739501951  0.816451774407053  0.4015665012638776  1.0000
  C   C32       1.0  0.030386484824479254  0.2896495436961213  0.4148652007133642  1.0000
  O   O3        1.0  0.10316064003251268  0.558055646933753  0.19888169648952836  1.0000
  O   O4        1.0  0.10167902767777082  0.5464750279295048  0.6180241493494285  1.0000
  O   O5        1.0  0.10368355563495446  0.7619077888327412  0.40006677706257876  1.0000
  O   O6        1.0  0.10115604914058363  0.34262289608618546  0.41683896045888114  1.0000
  O   O7        1.0  0.962765545823036  0.7634783556795084  0.3995925166731946  1.0000
  O   O8        1.0  0.9607610283632219  0.5480473271364359  0.6175498061496867  1.0000
  O   O9        1.0  0.9622426462398025  0.5596278803271166  0.19840562058495514  1.0000
  O   O10       1.0  0.9602380549240586  0.34419512013186226  0.41636299265081234  1.0000
