data_image0
_chemical_formula_structural       NC9NC3OH6C6NH7C6SCH8Zn2C4O8
_chemical_formula_sum              "N3 C29 O9 H21 S1 Zn2"
_cell_length_a       15.78231758774541
_cell_length_b       9.274771166103582
_cell_length_c       10.302812801239593
_cell_angle_alpha    85.45577702643503
_cell_angle_beta     90.08384720459999
_cell_angle_gamma    90.23039320205511

_space_group_name_H-M_alt    "P 1"
_space_group_IT_number       1

loop_
  _space_group_symop_operation_xyz
  'x, y, z'

loop_
  _atom_site_type_symbol
  _atom_site_label
  _atom_site_symmetry_multiplicity
  _atom_site_fract_x
  _atom_site_fract_y
  _atom_site_fract_z
  _atom_site_occupancy
  N   N1        1.0  0.8074978567971625  0.5696504790938826  0.5677979402100906  1.0000
  C   C1        1.0  0.7584070547744267  0.478506604223355  0.5920192873779317  1.0000
  C   C2        1.0  0.6974591647046294  0.3653749009877676  0.6220842169967893  1.0000
  C   C3        1.0  0.7162505267785999  0.22326325084512177  0.6597712289974933  1.0000
  C   C4        1.0  0.6390977171148243  0.15439038209331502  0.6781103577703298  1.0000
  C   C5        1.0  0.5779618708652399  0.2595692677318566  0.6502589227961357  1.0000
  C   C6        1.0  0.4847516748465828  0.2401232992894231  0.6554999645455677  1.0000
  C   C7        1.0  0.43173754172744494  0.35935674944788776  0.6237618926120461  1.0000
  C   C8        1.0  0.3434333028831328  0.34341152153086796  0.6280665796209102  1.0000
  C   C9        1.0  0.28974394026926253  0.46611413077387587  0.5953968282092739  1.0000
  N   N2        1.0  0.24659049043844472  0.5647511978158202  0.5691332759129064  1.0000
  C   C10       1.0  0.3074608219940225  0.20805538119173694  0.6641586074768295  1.0000
  C   C11       1.0  0.3595455339044972  0.08906844283994375  0.6958354175512114  1.0000
  C   C12       1.0  0.4476614250625495  0.10457562976908408  0.6916477157083643  1.0000
  O   O1        1.0  0.6151844727354241  0.384219919091775  0.6171539239207424  1.0000
  H   H1        1.0  0.7784171249614089  0.1753381042328126  0.6724298079068634  1.0000
  H   H2        1.0  0.6296713147920849  0.04114531964514323  0.7081573687264722  1.0000
  H   H3        1.0  0.45898874795476646  0.4646878272459758  0.5956711752030983  1.0000
  H   H4        1.0  0.23926173934995731  0.19455060176304095  0.6678023317673742  1.0000
  H   H5        1.0  0.3315684265759486  0.98445746295402  0.7237345156985253  1.0000
  H   H6        1.0  0.4861700765950462  0.01032959513536591  0.7167462273557792  1.0000
  C   C13       1.0  0.02444701842571928  0.14363327638424805  0.5691653494943345  1.0000
  C   C14       1.0  0.004950422352934192  0.22715956531237746  0.453006165646737  1.0000
  C   C15       1.0  0.9933644266116599  0.16223945312792232  0.336134435105208  1.0000
  C   C16       1.0  0.0013194454027931624  0.012415083409716088  0.3345757658316588  1.0000
  C   C17       1.0  0.01924930335851971  0.9275868475699586  0.4491353120140462  1.0000
  C   C18       1.0  0.029649357418856548  0.9907572691136383  0.5677771468912549  1.0000
  N   N3        1.0  0.9743883858156901  0.24885943185072712  0.21870082921176803  1.0000
  H   H7        1.0  0.11979956856107887  0.2222296768614389  0.8535874812459008  1.0000
  H   H8        1.0  0.000678403192126309  0.3437999392335096  0.45249446824421136  1.0000
  H   H9        1.0  0.9928061977493703  0.9610228493401741  0.24465597989504606  1.0000
  H   H10       1.0  0.022983208432866498  0.8113811705326717  0.44542845618687066  1.0000
  H   H11       1.0  0.09043909280602946  0.6930126829834818  0.7612724820994303  1.0000
  H   H12       1.0  0.9685508284669835  0.36099846669510316  0.21864090883793152  1.0000
  H   H13       1.0  0.9659549006700359  0.2014835155347292  0.1309163728374605  1.0000
  C   C19       1.0  0.02704820697091259  0.5671952620561183  0.18722277422711375  1.0000
  C   C20       1.0  0.99935804302528  0.7113547807933869  0.17570287960621478  1.0000
  C   C21       1.0  0.9853605539143843  0.7828737005738824  0.05299504287674317  1.0000
  C   C22       1.0  0.9993579657127266  0.7113546302337763  0.9405517099328091  1.0000
  C   C23       1.0  0.0270481519548178  0.5671952529489648  0.9497196777054553  1.0000
  C   C24       1.0  0.04073174195660689  0.49580765985889164  0.07359349982724828  1.0000
  S   S1        1.0  0.9501569397925971  0.9671636577554541  0.039771882762092314  1.0000
  C   C25       1.0  0.8383999870149067  0.9180122396945354  0.043027683462255606  1.0000
  H   H14       1.0  0.03745169405025828  0.512850387339272  0.5188783641576631  1.0000
  H   H15       1.0  0.9883583554954057  0.7686153649665428  0.2616937839917477  1.0000
  H   H16       1.0  0.9883581845895777  0.7686151590823085  0.8463434708342903  1.0000
  H   H17       1.0  0.06207497005081741  0.3846016426371055  0.08157285520232294  1.0000
  H   H18       1.0  0.03745011186833458  0.5128496560968938  0.6258627750732302  1.0000
  H   H19       1.0  0.8229819125706656  0.8540133207826441  0.9594408255502116  1.0000
  H   H20       1.0  0.8229822843997473  0.854014774439005  0.13567551629841423  1.0000
  H   H21       1.0  0.7997982353917117  0.018007466442970355  0.03580877739893107  1.0000
  Zn  Zn1       1.0  0.9342104786367028  0.5682327995268572  0.5681907866626423  1.0000
  Zn  Zn2       1.0  0.11987776780991499  0.5661571050770111  0.5687510617182787  1.0000
  C   C26       1.0  0.02701098628446119  0.5614491218922681  0.8056008601145963  1.0000
  C   C27       1.0  0.02707929881968041  0.5729425799785031  0.3313411188282738  1.0000
  C   C28       1.0  0.028661633538858755  0.830632820420347  0.5628659739684889  1.0000
  C   C29       1.0  0.02542857756767747  0.3037571492080955  0.5740760768398445  1.0000
  O   O2        1.0  0.09754946351194183  0.5740774244917839  0.37992118358961147  1.0000
  O   O3        1.0  0.09745799134367905  0.5587377851907163  0.7574456592118273  1.0000
  O   O4        1.0  0.0987899600454154  0.7761070366633906  0.5614355159352109  1.0000
  O   O5        1.0  0.09621743151790918  0.35670818404559346  0.5759312293142229  1.0000
  O   O6        1.0  0.9578707515695846  0.7776817212681775  0.5610106188686723  1.0000
  O   O7        1.0  0.9565387935063298  0.5603142027477339  0.7570206900818002  1.0000
  O   O8        1.0  0.9566302654223707  0.5756537917846511  0.3794946536346031  1.0000
  O   O9        1.0  0.9552982333615107  0.35828454102187934  0.5755047967131945  1.0000
