data_image0
_chemical_formula_structural       NC9NC3OH6C7NH5C6NCH9Zn2C4O8
_chemical_formula_sum              "N4 C30 O9 H20 Zn2"
_cell_length_a       15.78231758774541
_cell_length_b       10.302819778424748
_cell_length_c       9.273390368590327
_cell_angle_alpha    86.16779703784611
_cell_angle_beta     90.0787864382203
_cell_angle_gamma    89.6314472413266

_space_group_name_H-M_alt    "P 1"
_space_group_IT_number       1

loop_
  _space_group_symop_operation_xyz
  'x, y, z'

loop_
  _atom_site_type_symbol
  _atom_site_label
  _atom_site_symmetry_multiplicity
  _atom_site_fract_x
  _atom_site_fract_y
  _atom_site_fract_z
  _atom_site_occupancy
  N   N1        1.0  0.7980055702924466  0.39765887328810257  0.4128866158452502  1.0000
  C   C1        1.0  0.7494720183944421  0.3158759454899738  0.4396102914929312  1.0000
  C   C2        1.0  0.6892158111452651  0.21436345667488999  0.4727812575839965  1.0000
  C   C3        1.0  0.7088760464770083  0.08684656916013433  0.5143612071680137  1.0000
  C   C4        1.0  0.6321443191346128  0.025047685210476178  0.5345952156070155  1.0000
  C   C5        1.0  0.5703654029843976  0.11942521441991305  0.5038671071427931  1.0000
  C   C6        1.0  0.4772740913181193  0.10197722597685255  0.5096501073360202  1.0000
  C   C7        1.0  0.42353097484693997  0.20896423262582786  0.47463279179650786  1.0000
  C   C8        1.0  0.33532421758447506  0.19465737643280745  0.47938266028667686  1.0000
  C   C9        1.0  0.28088466231843084  0.30475713798750226  0.4433373458618659  1.0000
  N   N2        1.0  0.23712815451578292  0.39326312780672734  0.41436013462312116  1.0000
  C   C10       1.0  0.30017928640960084  0.07320430001283618  0.5192042176798846  1.0000
  C   C11       1.0  0.35299147407113146  0.9664385322519651  0.5541539714284225  1.0000
  C   C12       1.0  0.44101256175364834  0.9803523426527312  0.5495331778900368  1.0000
  O   O1        1.0  0.6068258934613481  0.23127381965661664  0.46734214386523654  1.0000
  H   H1        1.0  0.7713356651257615  0.04384276021618838  0.5283270246182499  1.0000
  H   H2        1.0  0.6234102976521664  0.9234329695193694  0.5677460829301384  1.0000
  H   H3        1.0  0.45013820114588105  0.3034762113501499  0.4436393191562338  1.0000
  H   H4        1.0  0.23206276581802632  0.061087113758618194  0.5232247538077568  1.0000
  H   H5        1.0  0.3256539440463694  0.8725726909609832  0.5849360267130255  1.0000
  H   H6        1.0  0.48009742446325077  0.8957864233717721  0.577224999914683  1.0000
  C   C13       1.0  0.01757089854255489  0.014207996462306527  0.41362958299259267  1.0000
  C   C14       1.0  0.9681013467129047  0.0060114973514799885  0.5396756428202885  1.0000
  C   C15       1.0  0.943489757233032  0.884831081771199  0.6023847496151704  1.0000
  C   C16       1.0  0.9681014150982499  0.7707104869014418  0.5396756477731011  1.0000
  C   C17       1.0  0.01757091250511955  0.7767040239145899  0.4136296258777168  1.0000
  C   C18       1.0  0.042047236767822405  0.8989665040577777  0.35126517955038516  1.0000
  C   C19       1.0  0.8927762964669139  0.8775575769011561  0.7316004832940295  1.0000
  N   N3        1.0  0.8520192686279261  0.8717120883008964  0.8354475477051464  1.0000
  H   H7        1.0  0.03630875784789622  0.3446350557010278  0.3658857860652369  1.0000
  H   H8        1.0  0.9485911069713086  0.09363755942904928  0.5893865714682658  1.0000
  H   H9        1.0  0.948591212725801  0.677487953918543  0.5893865375829788  1.0000
  H   H10       1.0  0.08019640705996989  0.9044379111927888  0.2540629966850625  1.0000
  H   H11       1.0  0.03630883556961595  0.4516519753839281  0.36588589586931075  1.0000
  C   C20       1.0  0.01761017683494459  0.39140705204674764  0.9903839707534714  1.0000
  C   C21       1.0  0.09543259885647393  0.3880484085388156  0.06424759627931209  1.0000
  C   C22       1.0  0.1718976227006921  0.39677227960890793  0.9890893936169083  1.0000
  C   C23       1.0  0.17248302022185502  0.40918706673787675  0.8374633701409864  1.0000
  C   C24       1.0  0.09517705729424852  0.41035104696187075  0.7627918755094902  1.0000
  C   C25       1.0  0.017531651452223462  0.3995050391970172  0.8368752422876726  1.0000
  N   N4        1.0  0.25038015458793783  0.4193914578871889  0.7569364900466309  1.0000
  C   C26       1.0  0.33403980207167483  0.4187070208944783  0.8242054150209159  1.0000
  H   H12       1.0  0.8838704567316893  0.3303819186078063  0.27577518696319014  1.0000
  H   H13       1.0  0.0971918340987501  0.38176389096892205  0.18130162093661717  1.0000
  H   H14       1.0  0.2302777620287888  0.3949932284665485  0.050406297560380287  1.0000
  H   H15       1.0  0.09580777461355017  0.41674198646609906  0.6456663596116434  1.0000
  H   H16       1.0  0.8200653776392334  0.30061827927629614  0.7407215363953927  1.0000
  H   H17       1.0  0.2476309037724307  0.4280233045349393  0.6440514318413157  1.0000
  H   H18       1.0  0.3395388913941326  0.5019356953220035  0.8936924075806849  1.0000
  H   H19       1.0  0.344375362342644  0.3257996952020348  0.889794029864484  1.0000
  H   H20       1.0  0.3836956617049889  0.4280248362628789  0.7394814733910988  1.0000
  Zn  Zn1       1.0  0.9247268581125806  0.39638696773073123  0.4133201578311989  1.0000
  Zn  Zn2       1.0  0.11040683710960897  0.3945245498276879  0.4139383746946821  1.0000
  C   C27       1.0  0.017544586438418497  0.39280223906600575  0.6768702669498938  1.0000
  C   C28       1.0  0.017591136390264994  0.39811089762982577  0.15038841379009305  1.0000
  C   C29       1.0  0.01756707903468646  0.6325211808039937  0.407886175723184  1.0000
  C   C30       1.0  0.017568580427246072  0.1583903974340095  0.4193725816472045  1.0000
  O   O2        1.0  0.08804933059304121  0.39964832754001023  0.20432197660922946  1.0000
  O   O3        1.0  0.08801319999061352  0.3898502936669257  0.6234055015288038  1.0000
  O   O4        1.0  0.08803041301119574  0.5834263946447977  0.40619894159356185  1.0000
  O   O5        1.0  0.0880320542224875  0.20607223545123077  0.4215284282664933  1.0000
  O   O6        1.0  0.9471015776362386  0.5848392827440811  0.40573010404083987  1.0000
  O   O7        1.0  0.9470843646189444  0.39126474086092955  0.6229365871271331  1.0000
  O   O8        1.0  0.9471204954385164  0.40106271291389484  0.20385132935535832  1.0000
  O   O9        1.0  0.947103219054471  0.207486612572916  0.42105788907205266  1.0000
