data_image0
_chemical_formula_structural       NC9NC3OH6C8H10C6BrH5Zn2C4O8
_chemical_formula_sum              "N2 C30 O9 H21 Br1 Zn2"
_cell_length_a       15.78231758774541
_cell_length_b       9.275653711864159
_cell_length_c       10.302972455390005
_cell_angle_alpha    85.74330901256305
_cell_angle_beta     90.08385913268748
_cell_angle_gamma    89.08352321082864

_space_group_name_H-M_alt    "P 1"
_space_group_IT_number       1

loop_
  _space_group_symop_operation_xyz
  'x, y, z'

loop_
  _atom_site_type_symbol
  _atom_site_label
  _atom_site_symmetry_multiplicity
  _atom_site_fract_x
  _atom_site_fract_y
  _atom_site_fract_z
  _atom_site_occupancy
  N   N1        1.0  0.7890448819064966  0.5690876215945462  0.5748764190412943  1.0000
  C   C1        1.0  0.7410255688076223  0.47797642699213827  0.5986876582982863  1.0000
  C   C2        1.0  0.6814076569413087  0.3648852879129607  0.6282435443086136  1.0000
  C   C3        1.0  0.7018696859506189  0.2228245928837862  0.6652911167363194  1.0000
  C   C4        1.0  0.6255265468936144  0.1539764189782089  0.6833203469055371  1.0000
  C   C5        1.0  0.5631542159113466  0.2591175920029909  0.6559421697589745  1.0000
  C   C6        1.0  0.47017262703424945  0.23967859605083452  0.6610957119473453  1.0000
  C   C7        1.0  0.4157567834653244  0.3588692942267715  0.629894139637311  1.0000
  C   C8        1.0  0.3276399969973377  0.3429297835849594  0.6341270789929088  1.0000
  C   C9        1.0  0.2725081404398916  0.4655883969539367  0.6020094370673836  1.0000
  N   N2        1.0  0.2281951115852922  0.5641900969893385  0.5761897095859878  1.0000
  C   C10       1.0  0.2932587651839779  0.20762217613398937  0.6696100610361664  1.0000
  C   C11       1.0  0.34674228954787545  0.08867790137640941  0.7007514806174433  1.0000
  C   C12       1.0  0.4346758779468914  0.10417952809300224  0.6966335554244469  1.0000
  O   O1        1.0  0.5989114226332757  0.38372354900880845  0.6233980444366669  1.0000
  H   H1        1.0  0.7645996929514779  0.17491663016130254  0.6777340544699604  1.0000
  H   H2        1.0  0.6174314554206585  0.04077196132988581  0.7128578049304737  1.0000
  H   H3        1.0  0.44176971575944557  0.4641626048320575  0.6022773679364597  1.0000
  H   H4        1.0  0.2252184449611368  0.194122238940186  0.6731930188257527  1.0000
  H   H5        1.0  0.3199949906693423  0.9841044304871776  0.7281798731889251  1.0000
  H   H6        1.0  0.47429248745267866  0.009967286030808431  0.7213079999695062  1.0000
  C   C13       1.0  0.01100229377578188  0.1432231649686282  0.5743286691437399  1.0000
  C   C14       1.0  0.9911153974880563  0.2268509067992417  0.45848347801308265  1.0000
  C   C15       1.0  0.9635882258906271  0.1619308942386979  0.34763985721531454  1.0000
  C   C16       1.0  0.9572084190602447  0.011408324464222241  0.35176902254060627  1.0000
  C   C17       1.0  0.9780097550618428  0.9265829192670421  0.46511499181627425  1.0000
  C   C18       1.0  0.006245838510668067  0.9900433536333832  0.57674863603643  1.0000
  C   C19       1.0  0.9437411040604801  0.25294037322950014  0.22388125204357845  1.0000
  C   C20       1.0  0.023006578186636206  0.2738953354350879  0.1405735027095909  1.0000
  H   H7        1.0  0.08792244324464948  0.4069092130119265  0.7545032760958958  1.0000
  H   H8        1.0  0.9951726925565586  0.3436243455191128  0.4549979636054642  1.0000
  H   H9        1.0  0.9369172150630778  0.9593937812039756  0.26655174435076434  1.0000
  H   H10       1.0  0.9740912095059256  0.8101555017116302  0.464310803281627  1.0000
  H   H11       1.0  0.014219537963153783  0.6908472116392067  0.7908600784439668  1.0000
  H   H12       1.0  0.8943414558392259  0.20061090141688376  0.16728000502403217  1.0000
  H   H13       1.0  0.9180247200898569  0.3603905635166438  0.24681534717321307  1.0000
  H   H14       1.0  0.07238775351039073  0.329541083056363  0.19432007471522894  1.0000
  H   H15       1.0  0.048441142456090436  0.16770518501238807  0.11393539248390505  1.0000
  H   H16       1.0  0.007025316902466994  0.3411326066821634  0.049914157157905814  1.0000
  C   C21       1.0  0.008624044014629462  0.566633266699486  0.1942961142234665  1.0000
  C   C22       1.0  0.03414899748147793  0.4204717360611514  0.20290414905825638  1.0000
  C   C23       1.0  0.046810798855087876  0.3479677248553392  0.09023636402015867  1.0000
  C   C24       1.0  0.03414914061778718  0.4204716781910587  0.9678217587232081  1.0000
  C   C25       1.0  0.00862408408437454  0.5666332701982446  0.9567811964291333  1.0000
  C   C26       1.0  0.99598482468057  0.6390081867023552  0.07067395636212326  1.0000
  Br  Br1       1.0  0.08152895951249373  0.14916278184949117  0.10359916645907274  1.0000
  H   H17       1.0  0.9990170310425359  0.6216473446893593  0.5183576772447367  1.0000
  H   H18       1.0  0.04430988797966151  0.36228750677035904  0.2968143229403435  1.0000
  H   H19       1.0  0.04431022254135231  0.3622875513392152  0.8817334214503552  1.0000
  H   H20       1.0  0.976298958103489  0.7517335643818843  0.06309705298476342  1.0000
  H   H21       1.0  0.9990158431687871  0.6216468165702629  0.6253240481495048  1.0000
  Zn  Zn1       1.0  0.9157741700130192  0.567670450347125  0.57526288630106  1.0000
  Zn  Zn2       1.0  0.10146586108622158  0.5655955001523256  0.5758138214975754  1.0000
  C   C27       1.0  0.008654458602663118  0.5608892162904797  0.8126387845109391  1.0000
  C   C28       1.0  0.008587590025483705  0.5723785308314799  0.33843806192714054  1.0000
  C   C29       1.0  0.007140554586380299  0.8299763889678025  0.5711177616652567  1.0000
  C   C30       1.0  0.010101440408378348  0.30328962653291813  0.579959148849968  1.0000
  O   O2        1.0  0.07904442008774248  0.573512970771052  0.3870224753889646  1.0000
  O   O3        1.0  0.07913333156132962  0.5581788494251207  0.764472141284857  1.0000
  O   O4        1.0  0.07790988496612705  0.7754701550488305  0.5694422080015882  1.0000
  O   O5        1.0  0.08026780326100824  0.35622167616986866  0.5820523111713098  1.0000
  O   O6        1.0  0.936972164470763  0.7770442750392303  0.5690243964324937  1.0000
  O   O7        1.0  0.9381956013318841  0.5597547017464082  0.7640542654437872  1.0000
  O   O8        1.0  0.938106690196768  0.5750887728461362  0.38660303852114475  1.0000
  O   O9        1.0  0.9393300734245008  0.3577974679320748  0.5816329716095829  1.0000
