data_image0
_chemical_formula_structural       NC9NC3OH6C7F3H5C6FH5Zn2C4O8
_chemical_formula_sum              "N2 C29 O9 H16 F4 Zn2"
_cell_length_a       15.78231758774541
_cell_length_b       9.27228830945605
_cell_length_c       9.275646106892307
_cell_angle_alpha    84.65403301377597
_cell_angle_beta     90.10253560025426
_cell_angle_gamma    89.05832516092083

_space_group_name_H-M_alt    "P 1"
_space_group_IT_number       1

loop_
  _space_group_symop_operation_xyz
  'x, y, z'

loop_
  _atom_site_type_symbol
  _atom_site_label
  _atom_site_symmetry_multiplicity
  _atom_site_fract_x
  _atom_site_fract_y
  _atom_site_fract_z
  _atom_site_occupancy
  N   N1        1.0  0.7881460229051638  0.5877397771327331  0.40231360295690743  1.0000
  C   C1        1.0  0.7401595506784451  0.49624415599150384  0.4295555362533743  1.0000
  C   C2        1.0  0.680582402432173  0.38267584598276305  0.4633697866290505  1.0000
  C   C3        1.0  0.7010956110524132  0.24001668832043288  0.5057576760745679  1.0000
  C   C4        1.0  0.6247773001083966  0.17087759261680113  0.52638336477724  1.0000
  C   C5        1.0  0.5623671039060806  0.27646120734151225  0.49505735533591033  1.0000
  C   C6        1.0  0.4693925458500531  0.256939323315694  0.5009510471970677  1.0000
  C   C7        1.0  0.4149337231394075  0.37663354012645534  0.4652556681496769  1.0000
  C   C8        1.0  0.3268227041265078  0.3606259784021757  0.4700963127739377  1.0000
  C   C9        1.0  0.2716466152201766  0.48380285825626057  0.4333531928496963  1.0000
  N   N2        1.0  0.22729802884121061  0.582821192936682  0.40381503392918106  1.0000
  C   C10       1.0  0.29249028354530987  0.22474602774057972  0.5106877223088109  1.0000
  C   C11       1.0  0.34601669962289827  0.10529922373027012  0.546314144758542  1.0000
  C   C12       1.0  0.43394467859059327  0.12086704712799978  0.5416050667880874  1.0000
  O   O1        1.0  0.5980794034311033  0.4015926700947883  0.457823643527703  1.0000
  H   H1        1.0  0.7638428609636341  0.19190750506160104  0.5199958773132738  1.0000
  H   H2        1.0  0.6167229973264808  0.057196055377529254  0.5601780829737752  1.0000
  H   H3        1.0  0.440908670090187  0.4823722911819708  0.4336631063751404  1.0000
  H   H4        1.0  0.22445484736051471  0.2111884799673911  0.5147851376604873  1.0000
  H   H5        1.0  0.3193071265392236  0.00028335263358991725  0.5776911941805702  1.0000
  H   H6        1.0  0.473595264062082  0.026256668752312473  0.5698328714650358  1.0000
  C   C13       1.0  0.010220213791197086  0.1614041833981643  0.40529740953676807  1.0000
  C   C14       1.0  0.05044779337890426  0.24417841488765024  0.2914279616823452  1.0000
  C   C15       1.0  0.08230558890925388  0.17947409908418321  0.17249740170995875  1.0000
  C   C16       1.0  0.0736243694736014  0.030464973186642208  0.16324136386679333  1.0000
  C   C17       1.0  0.03648836946228773  0.9459540812050765  0.2789586744649044  1.0000
  C   C18       1.0  0.005232013387076462  0.009145494698645784  0.40084380067442615  1.0000
  C   C19       1.0  0.11021353432777015  0.9598652277700156  0.036580183394493426  1.0000
  F   F1        1.0  0.10944317443687468  0.055791704407212706  0.9129283596293818  1.0000
  F   F2        1.0  0.06354373114868395  0.8403280980550789  0.008905894192996255  1.0000
  F   F3        1.0  0.19285399414755222  0.9160491748490719  0.06812039559219119  1.0000
  H   H7        1.0  0.8678339149370289  0.2428083948499331  0.6644398945815728  1.0000
  H   H8        1.0  0.055793223374443146  0.3603668956097139  0.29293980596310054  1.0000
  H   H9        1.0  0.11315561667306362  0.24651876159662356  0.08695012799012858  1.0000
  H   H10       1.0  0.03377979302160372  0.8295801970038449  0.2757037603636505  1.0000
  H   H11       1.0  0.9658715698083804  0.8761732497380701  0.7502758041766311  1.0000
  C   C20       1.0  0.0076008988769515895  0.5897937814218253  0.9792060779216958  1.0000
  C   C21       1.0  0.08510011574975684  0.6040109463122871  0.05145294064423522  1.0000
  C   C22       1.0  0.16162873691257928  0.6046864933747964  0.976260745011241  1.0000
  C   C23       1.0  0.16200300750691277  0.591011864695425  0.8279573177693371  1.0000
  C   C24       1.0  0.08581748389638477  0.5791865643035374  0.7537703919702095  1.0000
  C   C25       1.0  0.007851273993950025  0.5807558992613633  0.826935104265861  1.0000
  F   F4        1.0  0.23575919328833606  0.6168871957738951  0.0478812024899975  1.0000
  H   H12       1.0  0.8118006116883798  0.4747252849449093  0.09230328100591345  1.0000
  H   H13       1.0  0.0865622878161969  0.6111725270385133  0.16734762387072344  1.0000
  H   H14       1.0  0.22142142517416308  0.590950186473469  0.7698419407903359  1.0000
  H   H15       1.0  0.08779041549929878  0.5722655295365369  0.6378803187949038  1.0000
  H   H16       1.0  0.8752567833367036  0.5092308039781972  0.5520181403220645  1.0000
  Zn  Zn1       1.0  0.9148758271148988  0.586316435560704  0.4027552322153163  1.0000
  Zn  Zn2       1.0  0.10056826894447712  0.5842326278282235  0.40338526584814116  1.0000
  C   C26       1.0  0.007835918383210183  0.5767139211354477  0.6667263719002734  1.0000
  C   C27       1.0  0.00761019475717073  0.5938369392476701  0.13941426514501565  1.0000
  C   C28       1.0  0.006168811308044475  0.8489656974755924  0.3959337563159344  1.0000
  C   C29       1.0  0.009277248695557683  0.32158342858465816  0.41020696657893785  1.0000
  O   O2        1.0  0.07808266552333598  0.5943967685306335  0.193420723859985  1.0000
  O   O3        1.0  0.07829972061969426  0.574571445507255  0.6131976843519491  1.0000
  O   O4        1.0  0.07695256105632486  0.7944181926547911  0.3945307202569166  1.0000
  O   O5        1.0  0.0794297616297277  0.3745500335736882  0.4120875794607426  1.0000
  O   O6        1.0  0.9360142710619194  0.7959990305279927  0.39405291838011447  1.0000
  O   O7        1.0  0.9373614203943393  0.5761540184160769  0.612719796402964  1.0000
  O   O8        1.0  0.9371443651377019  0.5959793096401327  0.19294110078926363  1.0000
  O   O9        1.0  0.938491461333343  0.37613256320535027  0.4116080646616964  1.0000
