data_image0
_chemical_formula_structural       NC9NC3OH6C6OCH8C6ClH5Zn2C4O8
_chemical_formula_sum              "N2 C29 O10 H19 Cl1 Zn2"
_cell_length_a       15.78231758774541
_cell_length_b       9.273888216677433
_cell_length_c       10.302974078461048
_cell_angle_alpha    85.76054459610899
_cell_angle_beta     90.08385130592438
_cell_angle_gamma    89.05820199757643

_space_group_name_H-M_alt    "P 1"
_space_group_IT_number       1

loop_
  _space_group_symop_operation_xyz
  'x, y, z'

loop_
  _atom_site_type_symbol
  _atom_site_label
  _atom_site_symmetry_multiplicity
  _atom_site_fract_x
  _atom_site_fract_y
  _atom_site_fract_z
  _atom_site_occupancy
  N   N1        1.0  0.7886381442933202  0.5693627352247823  0.5753011819127398  1.0000
  C   C1        1.0  0.740642454174978  0.47823557041898557  0.5990877657271714  1.0000
  C   C2        1.0  0.6810538641695577  0.365124608435466  0.6286130483401804  1.0000
  C   C3        1.0  0.7015527261683109  0.2230390126502797  0.6656221779813014  1.0000
  C   C4        1.0  0.6252274378132623  0.1541787708577076  0.6836327772598982  1.0000
  C   C5        1.0  0.5628278461996599  0.259338373288555  0.6562830521688534  1.0000
  C   C6        1.0  0.46985129738854414  0.23989597001366159  0.6614313339930207  1.0000
  C   C7        1.0  0.4154045504916986  0.35910756024433477  0.6302620156792975  1.0000
  C   C8        1.0  0.3272918967563512  0.343165255679003  0.6344906416612712  1.0000
  C   C9        1.0  0.2721282377233568  0.4658453689685358  0.6024061921800683  1.0000
  N   N2        1.0  0.2277896437816075  0.5644643521662995  0.576613147141696  1.0000
  C   C10       1.0  0.2929457469986397  0.2078339311547246  0.6699370083287355  1.0000
  C   C11       1.0  0.3464601107983108  0.08886880753580106  0.7010462405972684  1.0000
  C   C12       1.0  0.4343896799975945  0.10437315142245263  0.6969325102827977  1.0000
  O   O1        1.0  0.5985527455385468  0.3839661715438132  0.6237726462455855  1.0000
  H   H1        1.0  0.7642951545790696  0.17512265250356962  0.6780521514359414  1.0000
  H   H2        1.0  0.6171616975862754  0.0409544704460576  0.7131396012299005  1.0000
  H   H3        1.0  0.44139018272638353  0.4644193269384087  0.6026737372339721  1.0000
  H   H4        1.0  0.2249089269857683  0.19433162765305712  0.6735163129153368  1.0000
  H   H5        1.0  0.3197399253418022  0.984277006733149  0.728446334707842  1.0000
  H   H6        1.0  0.47403071650760165  0.010144395593178812  0.7215814602081672  1.0000
  C   C13       1.0  0.010705982644722223  0.14342364079468295  0.5746382066275966  1.0000
  C   C14       1.0  0.9909184903585797  0.22690713713586552  0.4586203942586331  1.0000
  C   C15       1.0  0.9639221624721513  0.16248362109979997  0.3476743726483411  1.0000
  C   C16       1.0  0.9565566162183146  0.011584892945694314  0.352328780119052  1.0000
  C   C17       1.0  0.9772308306548146  0.9268964020012629  0.4658519838131563  1.0000
  C   C18       1.0  0.005729936786561751  0.9903922785174819  0.577287325768284  1.0000
  O   O2        1.0  0.9446482438143616  0.2521284902050509  0.23547487723241023  1.0000
  C   C19       1.0  0.916366983101751  0.20151933375898623  0.1159171275776314  1.0000
  H   H7        1.0  0.017607409765532323  0.22003123576980865  0.8941394670875937  1.0000
  H   H8        1.0  0.9944973583457831  0.34374278736837627  0.4547830136929989  1.0000
  H   H9        1.0  0.9356413305151261  0.9583812347414735  0.2683026739921861  1.0000
  H   H10       1.0  0.972827591422356  0.810477097928608  0.4654065360371953  1.0000
  H   H11       1.0  0.01392888820125604  0.6913701728469511  0.7915948115534412  1.0000
  H   H12       1.0  0.8555599729768523  0.14407356697314677  0.13069760165033206  1.0000
  H   H13       1.0  0.9650157422517434  0.1283683946050096  0.07713429337070843  1.0000
  H   H14       1.0  0.9060613116565625  0.2953196977845465  0.04411052091301104  1.0000
  C   C20       1.0  0.008217976461958765  0.5669079801454528  0.19472027105956347  1.0000
  C   C21       1.0  0.9943580487270332  0.41728925229302094  0.2034414192015288  1.0000
  C   C22       1.0  0.9874811741049088  0.34305251420994276  0.09081182396025311  1.0000
  C   C23       1.0  0.9943580861472867  0.41728933331502605  0.968333520598383  1.0000
  C   C24       1.0  0.008217974737863898  0.566907905728681  0.9572052898936927  1.0000
  C   C25       1.0  0.015080392705425938  0.640987972235463  0.07104883119926142  1.0000
  Cl  Cl1       1.0  0.9701668344764605  0.15614317885567153  0.10321015259804245  1.0000
  H   H15       1.0  0.013439260623875349  0.6232667670608261  0.5187381056295224  1.0000
  H   H16       1.0  0.9888456433351541  0.3577823901956445  0.2974352532241469  1.0000
  H   H17       1.0  0.9888457026699918  0.3577823689572479  0.8822342872627766  1.0000
  H   H18       1.0  0.025769546962174594  0.756378426335991  0.06339449484642201  1.0000
  H   H19       1.0  0.01343909945516697  0.6232667560975715  0.6257104746265192  1.0000
  Zn  Zn1       1.0  0.9153677998374478  0.5679453155706895  0.575687265671794  1.0000
  Zn  Zn2       1.0  0.10106002889545507  0.5658700016726268  0.57623763936831  1.0000
  C   C26       1.0  0.008249825810900724  0.5611628743281143  0.8130612928959247  1.0000
  C   C27       1.0  0.008180019985032816  0.5726542398525798  0.33886375126971147  1.0000
  C   C28       1.0  0.006666168982852438  0.8302972267756181  0.5716131133701985  1.0000
  C   C29       1.0  0.009763623628695539  0.30351815548034433  0.5803119944040507  1.0000
  O   O3        1.0  0.07863655159219629  0.5737888747903017  0.38744846426640334  1.0000
  O   O4        1.0  0.07872940582476451  0.5584520362316345  0.7648939236752175  1.0000
  O   O5        1.0  0.07744963294904594  0.7757814401181897  0.5699228122967097  1.0000
  O   O6        1.0  0.07991626104312877  0.35645948192821275  0.5824194781469849  1.0000
  O   O7        1.0  0.9365115043221202  0.7773558360248765  0.5695054266984794  1.0000
  O   O8        1.0  0.9377912670145709  0.5600281647728262  0.7644764742737356  1.0000
  O   O9        1.0  0.9376984131336402  0.5753649530766061  0.3870294538248149  1.0000
  O   O10       1.0  0.9389781226417058  0.358035549899824  0.5820005650086837  1.0000
