data_image0
_chemical_formula_structural       NC9NC3OH6C6NCOH7C6ClH5Zn2C4O8
_chemical_formula_sum              "N3 C29 O10 H18 Cl1 Zn2"
_cell_length_a       15.78231758774541
_cell_length_b       10.299619329790078
_cell_length_c       10.302974078461048
_cell_angle_alpha    85.5666042961525
_cell_angle_beta     90.08385130592438
_cell_angle_gamma    89.65730562172189

_space_group_name_H-M_alt    "P 1"
_space_group_IT_number       1

loop_
  _space_group_symop_operation_xyz
  'x, y, z'

loop_
  _atom_site_type_symbol
  _atom_site_label
  _atom_site_symmetry_multiplicity
  _atom_site_fract_x
  _atom_site_fract_y
  _atom_site_fract_z
  _atom_site_occupancy
  N   N1        1.0  0.7982747766673447  0.4132657364826309  0.5705398940276913  1.0000
  C   C1        1.0  0.7497195224872275  0.33120255453483716  0.5946029484477067  1.0000
  C   C2        1.0  0.6894363774668055  0.22934219847827464  0.6244713982845005  1.0000
  C   C3        1.0  0.709062766441003  0.10138917674288628  0.6619116012591904  1.0000
  C   C4        1.0  0.632314643504473  0.039378133567828044  0.6801311155500078  1.0000
  C   C5        1.0  0.5705607817826789  0.13407801374330952  0.6524623468562243  1.0000
  C   C6        1.0  0.47746484738362843  0.1165694532514936  0.6576696149664114  1.0000
  C   C7        1.0  0.4237501162559806  0.22392363726713893  0.6261386207395403  1.0000
  C   C8        1.0  0.3355395692007254  0.20956703742119775  0.6304156140618891  1.0000
  C   C9        1.0  0.2811292243154672  0.32004474711083897  0.5979589655192254  1.0000
  N   N2        1.0  0.23739619775775614  0.4088545721384431  0.571866720455648  1.0000
  C   C10       1.0  0.3003624208511278  0.08769647191705388  0.6662725622867351  1.0000
  C   C11       1.0  0.3531462823036269  0.9805642396591217  0.6977427227136319  1.0000
  C   C12       1.0  0.4411710555362949  0.9945264406785759  0.6935819537872097  1.0000
  O   O1        1.0  0.6070509549798101  0.2463096814986918  0.6195738327922091  1.0000
  H   H1        1.0  0.7715109656483592  0.05823882756462084  0.6744869481064448  1.0000
  H   H2        1.0  0.6235536523107191  0.9374157123140309  0.7099814506011284  1.0000
  H   H3        1.0  0.4503824127433021  0.318760546654993  0.5982308370404841  1.0000
  H   H4        1.0  0.23224269028346392  0.07553717790924575  0.6698928314971544  1.0000
  H   H5        1.0  0.325783853526916  0.8863756846019426  0.725460137774206  1.0000
  H   H6        1.0  0.4802334827429158  0.9096701681191114  0.7185167842317757  1.0000
  C   C13       1.0  0.01772714673049336  0.029692764807425  0.5711691748950352  1.0000
  C   C14       1.0  0.9768585908742174  0.03819475729602173  0.44953962300478145  1.0000
  C   C15       1.0  0.9575299107882099  0.9257376614895918  0.38735906632613704  1.0000
  C   C16       1.0  0.9771109289150984  0.8030337652099461  0.44964032715475466  1.0000
  C   C17       1.0  0.017951878257820963  0.7924175204453553  0.5712487009034846  1.0000
  C   C18       1.0  0.03832917200523611  0.9063668412713468  0.6310812030517332  1.0000
  N   N3        1.0  0.9145331958353184  0.9382480184088867  0.26380201638136347  1.0000
  C   C19       1.0  0.9278559417798459  0.8534357800510408  0.16169184566188255  1.0000
  O   O2        1.0  0.9873417258049574  0.7711138193967044  0.16732936844675983  1.0000
  H   H7        1.0  0.09401267212043551  0.2208652362711403  0.8012386154246407  1.0000
  H   H8        1.0  0.9604387297763453  0.13246186390367964  0.4019071796725109  1.0000
  H   H9        1.0  0.9589923649896589  0.7158223605159338  0.40467766244188397  1.0000
  H   H10       1.0  0.0698442478024377  0.898937118253618  0.7248368096810855  1.0000
  H   H11       1.0  0.03249165523162678  0.46083539473833707  0.6188424515997519  1.0000
  H   H12       1.0  0.8753130023548001  0.019243524917190502  0.24265734730067434  1.0000
  H   H13       1.0  0.8876317889034901  0.8627103171817055  0.07631719524292824  1.0000
  C   C20       1.0  0.017839535474205803  0.41105514414014355  0.18996643065326357  1.0000
  C   C21       1.0  0.003060877706878573  0.2763182749231774  0.19914150688993248  1.0000
  C   C22       1.0  0.9957281542631301  0.20946550980637202  0.08673713840709052  1.0000
  C   C23       1.0  0.0030609156246457214  0.27631834788631204  0.9640336080409742  1.0000
  C   C24       1.0  0.017839533293156684  0.41105507712525213  0.9524514497131658  1.0000
  C   C25       1.0  0.02515683804447222  0.47776675403746904  0.06607023958602554  1.0000
  Cl  Cl1       1.0  0.9772661025655375  0.04114715130584501  0.09970253107287674  1.0000
  H   H14       1.0  0.023406889348598803  0.4618081923102433  0.5138132783612734  1.0000
  H   H15       1.0  0.9971830719261072  0.22273027553961078  0.2933158787163501  1.0000
  H   H16       1.0  0.9971831311305314  0.22273025641369548  0.8781149128194157  1.0000
  H   H17       1.0  0.03655454448019135  0.5816798720420779  0.05806582026076179  1.0000
  H   H18       1.0  0.023406728112570052  0.4618081824374509  0.6207856473915321  1.0000
  Zn  Zn1       1.0  0.9249957285817633  0.41198930077635065  0.5709302780946828  1.0000
  Zn  Zn2       1.0  0.1106752142270162  0.4101204084172123  0.5714869480837632  1.0000
  C   C26       1.0  0.01783610714548356  0.4058814764966663  0.8083248825598777  1.0000
  C   C27       1.0  0.01783686376037541  0.41622985090151565  0.33409247729237457  1.0000
  C   C28       1.0  0.01790506303439665  0.6482463232508604  0.5660601766167737  1.0000
  C   C29       1.0  0.017767844052236637  0.17386344448885227  0.5763572520985758  1.0000
  O   O3        1.0  0.08830036256481466  0.4172516291334738  0.38267374792137043  1.0000
  O   O4        1.0  0.08829904132624922  0.4034402724888766  0.7601657377479047  1.0000
  O   O5        1.0  0.08835377418480883  0.5991529609254798  0.5645352709287679  1.0000
  O   O6        1.0  0.08824556634916436  0.22153895062478512  0.5783041172091332  1.0000
  O   O7        1.0  0.94742531309632  0.6005707592079528  0.5641131087725197  1.0000
  O   O8        1.0  0.9473705806936907  0.4048596310689938  0.7597435065317664  1.0000
  O   O9        1.0  0.9473719019753051  0.4186709424573172  0.3822499558175936  1.0000
  O   O10       1.0  0.9473171057534503  0.2229582546598894  0.5778804224399376  1.0000
