data_image0
_chemical_formula_structural       NC9NC3OH6C6SCH8C6SCH8Zn2C4O8
_chemical_formula_sum              "N2 C30 O9 H22 S2 Zn2"
_cell_length_a       15.78231758774541
_cell_length_b       10.302809429070853
_cell_length_c       10.302812801239593
_cell_angle_alpha    85.56069637758505
_cell_angle_beta     90.08384720459999
_cell_angle_gamma    89.63144148246117

_space_group_name_H-M_alt    "P 1"
_space_group_IT_number       1

loop_
  _space_group_symop_operation_xyz
  'x, y, z'

loop_
  _atom_site_type_symbol
  _atom_site_label
  _atom_site_symmetry_multiplicity
  _atom_site_fract_x
  _atom_site_fract_y
  _atom_site_fract_z
  _atom_site_occupancy
  N   N1        1.0  0.7978583049063613  0.41284346398950267  0.5703701155528034  1.0000
  C   C1        1.0  0.7493272364823119  0.3308048002177828  0.5944421058856648  1.0000
  C   C2        1.0  0.6890741118640331  0.22897487717741916  0.624321647367853  1.0000
  C   C3        1.0  0.7087382113047506  0.10106008421236035  0.6617757819940853  1.0000
  C   C4        1.0  0.6320083643330163  0.03906756819798618  0.6800020492750516  1.0000
  C   C5        1.0  0.5702265925481402  0.13373915470933295  0.6523229702105438  1.0000
  C   C6        1.0  0.4771358182888904  0.11623582528614884  0.6575321459864938  1.0000
  C   C7        1.0  0.4233894476141757  0.22355793488251718  0.6259894610799623  1.0000
  C   C8        1.0  0.33518313174951037  0.20920562438764234  0.6302680187545397  1.0000
  C   C9        1.0  0.2807402267485364  0.31965032643590785  0.5977993392568011  1.0000
  N   N2        1.0  0.2369810260586762  0.4084336175783754  0.5716974228374023  1.0000
  C   C10       1.0  0.3000419012285016  0.08737147039217263  0.666138239443002  1.0000
  C   C11       1.0  0.3528573368139893  0.9802712462406794  0.69762006644758  1.0000
  C   C12       1.0  0.44087799509371967  0.9942292757443858  0.6934577761242939  1.0000
  O   O1        1.0  0.60668368869714  0.2459372907921884  0.6194222354921406  1.0000
  H   H1        1.0  0.7711991278366422  0.057922627145467365  0.674355826298425  1.0000
  H   H2        1.0  0.6232774236244296  0.9371356104532629  0.7098634863335702  1.0000
  H   H3        1.0  0.4499937936623222  0.31836650966019997  0.5980713489769363  1.0000
  H   H4        1.0  0.23192575425948672  0.0752158092417563  0.6697598335452544  1.0000
  H   H5        1.0  0.32552266739272584  0.886110832083583  0.725347739308422  1.0000
  H   H6        1.0  0.47996543123683777  0.9093983558595694  0.7184018474490628  1.0000
  C   C13       1.0  0.017423727279962664  0.02938509003171763  0.5710394134046131  1.0000
  C   C14       1.0  0.06630374428560204  0.03655827905349818  0.4569509191441885  1.0000
  C   C15       1.0  0.09039231006983517  0.9231507324108761  0.4000363449276998  1.0000
  C   C16       1.0  0.0663036374463466  0.8014071222058211  0.4569508490490577  1.0000
  C   C17       1.0  0.017423693507231164  0.7918819517399573  0.5710394064869986  1.0000
  C   C18       1.0  0.9932006183493964  0.9065019166155337  0.6275014494033142  1.0000
  S   S1        1.0  0.15300007175199037  0.9338045836703416  0.25442359640673784  1.0000
  C   C19       1.0  0.06117912349377064  0.9430246417957558  0.14700374709324882  1.0000
  H   H7        1.0  0.998975347180747  0.3539974600683129  0.6140058475415646  1.0000
  H   H8        1.0  0.08571836146497636  0.129974295604109  0.4116332009128729  1.0000
  H   H9        1.0  0.08571817448313412  0.7146239039938415  0.41163309917818025  1.0000
  H   H10       1.0  0.9554834612639965  0.9000630271415553  0.7154896030688966  1.0000
  H   H11       1.0  0.9989739631306722  0.46098170598908905  0.6140044157286257  1.0000
  H   H12       1.0  0.022295423080469945  0.8539599598199329  0.1641981896254967  1.0000
  H   H13       1.0  0.022296216597869067  0.030194913516859545  0.16419772008456168  1.0000
  H   H14       1.0  0.08305770246283517  0.950746370383777  0.04445239087790864  1.0000
  C   C20       1.0  0.01742373308145906  0.4106335214636456  0.1897909262227122  1.0000
  C   C21       1.0  0.9888482553797197  0.5403916023437907  0.17850726480433288  1.0000
  C   C22       1.0  0.9744115536239834  0.6047658306890675  0.05591662563218214  1.0000
  C   C23       1.0  0.9888481789917841  0.540391466824983  0.9433560948842064  1.0000
  C   C24       1.0  0.017423678121292863  0.4106335132662906  0.9522878296861292  1.0000
  C   C25       1.0  0.031545674263248946  0.3463774921643985  0.07604466945473831  1.0000
  S   S2        1.0  0.9380761763301614  0.7706453465117207  0.04299546019092193  1.0000
  C   C26       1.0  0.826621072690999  0.7264041216797616  0.04617071680354479  1.0000
  H   H15       1.0  0.02816096340288854  0.3617176627628298  0.521357461584355  1.0000
  H   H16       1.0  0.9774969186261575  0.5919318931096471  0.2645920017116157  1.0000
  H   H17       1.0  0.9774967489847076  0.5919317077931074  0.849241688216777  1.0000
  H   H18       1.0  0.05357184176840235  0.2462808804150085  0.08384179230144495  1.0000
  H   H19       1.0  0.02815938571167731  0.36171700457106803  0.6283418713016404  1.0000
  H   H20       1.0  0.8115960289934261  0.6687986512318085  0.9624789843073955  1.0000
  H   H21       1.0  0.8115963918952999  0.668799959668887  0.13871367743769514  1.0000
  H   H22       1.0  0.7874052294659397  0.8164098932979309  0.03911567222407086  1.0000
  Zn  Zn1       1.0  0.9245796330126358  0.41156740964684446  0.5707606388636906  1.0000
  Zn  Zn2       1.0  0.1102596694596043  0.40969907566054364  0.571317512493243  1.0000
  C   C27       1.0  0.017421800643581786  0.40546141679334413  0.8081595959502006  1.0000
  C   C28       1.0  0.01741952944879044  0.4158066862352061  0.33391868891385057  1.0000
  C   C29       1.0  0.01741933450446953  0.6477538469510835  0.5658658192620496  1.0000
  C   C30       1.0  0.01742193222835997  0.17351269688496784  0.5762125346288511  1.0000
  O   O2        1.0  0.08788272482353898  0.41682816055358995  0.38250061333701324  1.0000
  O   O3        1.0  0.08788545658857072  0.40302094078388606  0.7599999519988023  1.0000
  O   O4        1.0  0.08788251525336332  0.5986751519002009  0.5643460102054771  1.0000
  O   O5        1.0  0.08788560279873336  0.22117395936222106  0.5781544575964028  1.0000
  O   O6        1.0  0.9469536363100233  0.6000925265841512  0.5639236935636682  1.0000
  O   O7        1.0  0.9469565776412897  0.40443987529931813  0.759577566133282  1.0000
  O   O8        1.0  0.9469538459327184  0.4182470498262256  0.3820766665641442  1.0000
  O   O9        1.0  0.9469567239044422  0.22259283934889518  0.5777306081606071  1.0000
