data_image0
_chemical_formula_structural       NC9NC3OH6C7F3H5C6H6Zn2C4O8
_chemical_formula_sum              "N2 C29 O9 H17 F3 Zn2"
_cell_length_a       15.78231758774541
_cell_length_b       9.27228830945605
_cell_length_c       10.681121600428288
_cell_angle_alpha    85.26210850016507
_cell_angle_beta     90.08384876913414
_cell_angle_gamma    89.05832516092083

_space_group_name_H-M_alt    "P 1"
_space_group_IT_number       1

loop_
  _space_group_symop_operation_xyz
  'x, y, z'

loop_
  _atom_site_type_symbol
  _atom_site_label
  _atom_site_symmetry_multiplicity
  _atom_site_fract_x
  _atom_site_fract_y
  _atom_site_fract_z
  _atom_site_occupancy
  N   N1        1.0  0.7886180291136015  0.5707062715060494  0.6138458701834912  1.0000
  C   C1        1.0  0.7406235087732673  0.4795010863508469  0.6374809955829248  1.0000
  C   C2        1.0  0.6810363707466848  0.36629328214919243  0.6668182690876885  1.0000
  C   C3        1.0  0.7015370566672152  0.2240860369239397  0.7035940394252538  1.0000
  C   C4        1.0  0.6252126522538298  0.15516683905834538  0.7214889051688895  1.0000
  C   C5        1.0  0.5628117107281321  0.26041647600176665  0.6943104316974158  1.0000
  C   C6        1.0  0.46983541149238733  0.24095742673104525  0.6994238039639187  1.0000
  C   C7        1.0  0.4153871343059161  0.36027108234971283  0.6684544615613797  1.0000
  C   C8        1.0  0.3272746852161755  0.34431512846762113  0.6726542091146612  1.0000
  C   C9        1.0  0.2721094513692312  0.4671002767897048  0.640775845801566  1.0000
  N   N2        1.0  0.22776959148028364  0.5658036946021436  0.6151485130217247  1.0000
  C   C10       1.0  0.2929302726712572  0.20886793732878672  0.7078713518943531  1.0000
  C   C11       1.0  0.3464461635965929  0.08980095933964094  0.7387808674918313  1.0000
  C   C12       1.0  0.43437553377225113  0.10531857757429575  0.7346952672836462  1.0000
  O   O1        1.0  0.598535010248629  0.3851509768476491  0.6620064304322961  1.0000
  H   H1        1.0  0.76428010017135  0.17612865221666496  0.7159471154010637  1.0000
  H   H2        1.0  0.6171483654620165  0.04184559938661758  0.7508092325377709  1.0000
  H   H3        1.0  0.44137141468115587  0.46567301381425974  0.6410447270500859  1.0000
  H   H4        1.0  0.22489362598264354  0.19535407356491108  0.7114262730740106  1.0000
  H   H5        1.0  0.3197273207575039  0.9851196101797238  0.7660036232956589  1.0000
  H   H6        1.0  0.4740177798730832  0.011009145911732299  0.759185735563918  1.0000
  C   C13       1.0  0.010691338490451896  0.14440248919971932  0.6164346234087188  1.0000
  C   C14       1.0  0.05095255865145143  0.2259627178133432  0.5176413898333085  1.0000
  C   C15       1.0  0.08284548996488361  0.15999044080908997  0.4144571309122711  1.0000
  C   C16       1.0  0.07416700505043372  0.010882632984373641  0.4064265843007542  1.0000
  C   C17       1.0  0.03699681854975223  0.9276054446037308  0.5068230252253898  1.0000
  C   C18       1.0  0.005704453820781108  0.9920963189845814  0.6125706684244687  1.0000
  C   C19       1.0  0.11079358955320306  0.9389325074592036  0.29653523220308853  1.0000
  F   F1        1.0  0.11005976025342323  0.03354068781513386  0.18925480064369715  1.0000
  F   F2        1.0  0.06413196221910189  0.8191003322574302  0.2725249944384136  1.0000
  F   F3        1.0  0.19342473141421657  0.8954527160116822  0.32389954817526045  1.0000
  H   H7        1.0  0.8682284808935684  0.2285695112914814  0.8412668724161441  1.0000
  H   H8        1.0  0.05629754200121129  0.3421673168475552  0.518953067267182  1.0000
  H   H9        1.0  0.11372079105165933  0.22612305326530469  0.34023624064197144  1.0000
  H   H10       1.0  0.03428920371183719  0.8111968586000925  0.5039990588750469  1.0000
  H   H11       1.0  0.9662407771699473  0.8628494934860567  0.915738183426835  1.0000
  C   C20       1.0  0.008197904195992756  0.5682493752694078  0.24675740759818798  1.0000
  C   C21       1.0  0.9480184315652159  0.4886524828077765  0.18552091484998257  1.0000
  C   C22       1.0  0.9480183781148317  0.4886525759474589  0.05463877431829789  1.0000
  C   C23       1.0  0.008197837164799493  0.5682494467660759  0.9822478427544281  1.0000
  C   C24       1.0  0.068327640970552  0.647780374986825  0.04348390988934692  1.0000
  C   C25       1.0  0.06832763026071209  0.6477803527266546  0.17437620862225178  1.0000
  H   H12       1.0  0.06905529899098473  0.6487437108740657  0.5398270563263787  1.0000
  H   H13       1.0  0.9008469199533761  0.4262606765425827  0.23870354153078832  1.0000
  H   H14       1.0  0.90084690185629  0.4262607446812259  0.010199511943070894  1.0000
  H   H15       1.0  0.11550531214631321  0.7101804035157036  0.9903455991972545  1.0000
  H   H16       1.0  0.11550526974983133  0.7101803533947213  0.2187699667856533  1.0000
  H   H17       1.0  0.06905556641851929  0.6487432050514721  0.6778980336896208  1.0000
  Zn  Zn1       1.0  0.9153477028523302  0.5692876383013652  0.6142290281183171  1.0000
  Zn  Zn2       1.0  0.10103995855039583  0.5672105475825917  0.6147756458548643  1.0000
  C   C26       1.0  0.008229808843299047  0.562499414528784  0.8432506221582174  1.0000
  C   C27       1.0  0.008159869599372538  0.5740005698310975  0.38575417239572385  1.0000
  C   C28       1.0  0.006642702321428384  0.8318641740239732  0.6083107096004456  1.0000
  C   C29       1.0  0.009746922959102067  0.3046340769283147  0.62069415943667  1.0000
  O   O2        1.0  0.07861638517942815  0.5751361812701221  0.4326102236978244  1.0000
  O   O3        1.0  0.07870942511744383  0.5597862504336739  0.7968090855424645  1.0000
  O   O4        1.0  0.07742686657015874  0.7773017109343592  0.6070934342758958  1.0000
  O   O5        1.0  0.07989888030178816  0.35762073180333176  0.6223257808346643  1.0000
  O   O6        1.0  0.936488717733275  0.7788774547910051  0.606678892945389  1.0000
  O   O7        1.0  0.9377712660750388  0.5613637284082948  0.7963944695356553  1.0000
  O   O8        1.0  0.9376782264893532  0.5767136089466665  0.4321941022978639  1.0000
  O   O9        1.0  0.9389607216689756  0.35919814915636183  0.6219097533713045  1.0000
