data_image0
_chemical_formula_structural       NC9NC3OH6C7F3H5C9H8Zn2C4O8
_chemical_formula_sum              "N2 C32 O9 H19 F3 Zn2"
_cell_length_a       15.78231758774541
_cell_length_b       9.27228830945605
_cell_length_c       9.275155815604963
_cell_angle_alpha    85.75778382987818
_cell_angle_beta     90.4446892459172
_cell_angle_gamma    89.05832516092083

_space_group_name_H-M_alt    "P 1"
_space_group_IT_number       1

loop_
  _space_group_symop_operation_xyz
  'x, y, z'

loop_
  _atom_site_type_symbol
  _atom_site_label
  _atom_site_symmetry_multiplicity
  _atom_site_fract_x
  _atom_site_fract_y
  _atom_site_fract_z
  _atom_site_occupancy
  N   N1        1.0  0.782846792713582  0.5570203502585376  0.40475280844636163  1.0000
  C   C1        1.0  0.7349506769395873  0.46604852188374934  0.4319531511820256  1.0000
  C   C2        1.0  0.6754856843058482  0.35313037350475285  0.465715776967738  1.0000
  C   C3        1.0  0.6961394857132105  0.21128622664340502  0.5080389523537172  1.0000
  C   C4        1.0  0.619889586362669  0.14254371022905366  0.5286331515893699  1.0000
  C   C5        1.0  0.5573754875826501  0.24752500583902792  0.49735496791305467  1.0000
  C   C6        1.0  0.46442047781213647  0.2281164424476494  0.5032396618096755  1.0000
  C   C7        1.0  0.4098432601331805  0.34712432833112583  0.4675987792921934  1.0000
  C   C8        1.0  0.3217482966429334  0.3312098398337535  0.47243203365077835  1.0000
  C   C9        1.0  0.2664503376056455  0.4536802433807665  0.4357450098540281  1.0000
  N   N2        1.0  0.22200377861838472  0.5521306347435022  0.4062519471673671  1.0000
  C   C10       1.0  0.2875505102573599  0.19611035825497347  0.5129614718318578  1.0000
  C   C11       1.0  0.3411950925869818  0.07734855931277895  0.548533503028481  1.0000
  C   C12       1.0  0.4291074524142738  0.09282583917416387  0.5438316144594366  1.0000
  O   O1        1.0  0.5929642897742013  0.3719405594569045  0.4601781012243922  1.0000
  H   H1        1.0  0.7589339611037353  0.16345080761175956  0.522255415973147  1.0000
  H   H2        1.0  0.6119473744086619  0.029511959065630755  0.5623762750159349  1.0000
  H   H3        1.0  0.4357134204014828  0.4522556351516538  0.4360544502310659  1.0000
  H   H4        1.0  0.2195286644412248  0.18263159330894108  0.5170526316142083  1.0000
  H   H5        1.0  0.314589591371183  0.9729359886992425  0.5798626487621918  1.0000
  H   H6        1.0  0.4688516642914596  0.9987582093523837  0.5720163234348439  1.0000
  C   C13       1.0  0.00493088033400757  0.13074212750002956  0.40773205961572234  1.0000
  C   C14       1.0  0.04478077603012909  0.2113269404759428  0.2940364575064984  1.0000
  C   C15       1.0  0.07624410089635258  0.14433589390544888  0.17528747013514634  1.0000
  C   C16       1.0  0.0675321808956304  0.9951487980519801  0.16604556358730838  1.0000
  C   C17       1.0  0.030779993794751048  0.912862854262736  0.2815862072877362  1.0000
  C   C18       1.0  0.9999279081332514  0.9783978072823192  0.4032852501272779  1.0000
  C   C19       1.0  0.10370123404771414  0.9221136817900369  0.03957775813984443  1.0000
  F   F1        1.0  0.1025207439341711  0.01566264982163834  0.9161147149814073  1.0000
  F   F2        1.0  0.05693964037135735  0.8020444462093973  0.01194571958169166  1.0000
  F   F3        1.0  0.18644630691611175  0.8789040665554859  0.07106981754681096  1.0000
  H   H7        1.0  0.8634041091588713  0.21712898675681447  0.6664789089630316  1.0000
  H   H8        1.0  0.05013122053344188  0.32754449010033504  0.29554599363787193  1.0000
  H   H9        1.0  0.10681038418030542  0.2097357009417542  0.08987080238407863  1.0000
  H   H10       1.0  0.028060621406183595  0.7964263863805638  0.27833626249983334  1.0000
  H   H11       1.0  0.9617264658618776  0.8521442468514211  0.7521837719257449  1.0000
  C   C20       1.0  0.0008982993038060272  0.5509390780006829  0.9822912463483102  1.0000
  C   C21       1.0  0.9341925702609678  0.6220034276939719  0.04951089062292624  1.0000
  C   C22       1.0  0.8731060782856741  0.7025967217788114  0.9675999491263276  1.0000
  C   C23       1.0  0.877591336448195  0.7138116859582995  0.8169745896000715  1.0000
  C   C24       1.0  0.9425963991031229  0.641990870352797  0.7480448275216491  1.0000
  C   C25       1.0  0.003960450425925188  0.5582007940569289  0.828725995299461  1.0000
  C   C26       1.0  0.8147720375744149  0.7977959835973787  0.7327274931858985  1.0000
  C   C27       1.0  0.7621721700935798  0.8681213334551945  0.6621554145899196  1.0000
  C   C28       1.0  0.6983516848988275  0.9534492486083765  0.576516654930014  1.0000
  H   H12       1.0  0.1982731574567873  0.4323022591670975  0.09653139887532469  1.0000
  H   H13       1.0  0.9304091199347462  0.6180449915298836  0.16631042130932117  1.0000
  H   H14       1.0  0.8227799129898455  0.7574010236753366  0.02195769232904654  1.0000
  H   H15       1.0  0.9441220321057959  0.6487602362931919  0.6308682724841543  1.0000
  H   H16       1.0  0.1356914018409423  0.47315756912590134  0.5560300799318991  1.0000
  H   H17       1.0  0.7155468645900361  0.9574043591899852  0.46055469412476757  1.0000
  H   H18       1.0  0.6355430004748432  0.9027565982149746  0.5915971167905725  1.0000
  H   H19       1.0  0.6955493521252086  0.06491853226095445  0.6124294138001178  1.0000
  Zn  Zn1       1.0  0.9095780617258616  0.5556055000886604  0.40519376346449776  1.0000
  Zn  Zn2       1.0  0.09527259326043747  0.5535338062930246  0.4058228352180089  1.0000
  C   C29       1.0  0.003413696427298163  0.5510784761585708  0.6687618954915266  1.0000
  C   C30       1.0  0.0014389761009827584  0.5580626298895695  0.1422548419606271  1.0000
  C   C31       1.0  0.0008484203454877104  0.8181236024528049  0.39838270198780323  1.0000
  C   C32       1.0  0.004004199330761793  0.29101577092313646  0.4126341211828659  1.0000
  O   O2        1.0  0.07209057629898963  0.5596608653718342  0.19617884841787703  1.0000
  O   O3        1.0  0.07369995391050876  0.547906780649771  0.6153149307823982  1.0000
  O   O4        1.0  0.0716275164827358  0.7635491208337428  0.39698180795945137  1.0000
  O   O5        1.0  0.07416294990992944  0.34401853529238546  0.41451186291218844  1.0000
  O   O6        1.0  0.930687641707903  0.765120771797773  0.3965047355480582  1.0000
  O   O7        1.0  0.9327600686192407  0.5494801649944734  0.614837772430229  1.0000
  O   O8        1.0  0.9311506850923648  0.561234184555256  0.19569995759300096  1.0000
  O   O9        1.0  0.9332230591516709  0.3455918450797575  0.41403308019368845  1.0000
