data_image0
_chemical_formula_structural       NC9NC3OH6C6BrH5C6BrH5Zn2C4O8
_chemical_formula_sum              "N2 C28 O9 H16 Br2 Zn2"
_cell_length_a       15.78231758774541
_cell_length_b       10.302969083221269
_cell_length_c       10.302972455390005
_cell_angle_alpha    85.5606971791834
_cell_angle_beta     90.08385913268748
_cell_angle_gamma    89.63144763104107

_space_group_name_H-M_alt    "P 1"
_space_group_IT_number       1

loop_
  _space_group_symop_operation_xyz
  'x, y, z'

loop_
  _atom_site_type_symbol
  _atom_site_label
  _atom_site_symmetry_multiplicity
  _atom_site_fract_x
  _atom_site_fract_y
  _atom_site_fract_z
  _atom_site_occupancy
  N   N1        1.0  0.7978582097996716  0.4128215115453049  0.57039223080191  1.0000
  C   C1        1.0  0.7493271388985443  0.3307841199393089  0.5944638505129247  1.0000
  C   C2        1.0  0.6890740112056571  0.2289557759658516  0.6243429319578844  1.0000
  C   C3        1.0  0.7087381067733969  0.10104296655987821  0.6617964899336002  1.0000
  C   C4        1.0  0.6320082579347811  0.03905141185908745  0.6800224765920553  1.0000
  C   C5        1.0  0.5702264890219525  0.13372153031146738  0.6523438236753292  1.0000
  C   C6        1.0  0.47713571424415563  0.11621847231389126  0.6575529192412386  1.0000
  C   C7        1.0  0.4233893468028756  0.22353891767432277  0.6260107199836407  1.0000
  C   C8        1.0  0.3351830305139856  0.20918682974224634  0.6302892117769592  1.0000
  C   C9        1.0  0.2807401288394061  0.31962981913241406  0.5978210321861315  1.0000
  N   N2        1.0  0.23698093082336322  0.4084117335186779  0.571719517647342  1.0000
  C   C10       1.0  0.3000417963307807  0.08735456502258021  0.6661588801809273  1.0000
  C   C11       1.0  0.35285722869010994  0.9802560016664493  0.6976402224731284  1.0000
  C   C12       1.0  0.440877887382238  0.9942138147214602  0.6934779962409439  1.0000
  O   O1        1.0  0.6066835885614789  0.24591792654943312  0.6194435955074744  1.0000
  H   H1        1.0  0.7711990219922823  0.057906178418083876  0.6743763405585652  1.0000
  H   H2        1.0  0.6232773141419847  0.9371210347614484  0.7098834538970156  1.0000
  H   H3        1.0  0.4499936957002195  0.3183460222602321  0.5980930377290352  1.0000
  H   H4        1.0  0.2319256490021817  0.0751990923711976  0.6697804185180649  1.0000
  H   H5        1.0  0.32552255643918504  0.8860970476501515  0.7253674684176532  1.0000
  H   H6        1.0  0.4799653209711306  0.9093842103038839  0.7184216835115509  1.0000
  C   C13       1.0  0.01742360541528254  0.02936907903409991  0.5710615298197204  1.0000
  C   C14       1.0  0.10527053565276834  0.025573105635581017  0.5932066222327237  1.0000
  C   C15       1.0  0.1488473413427478  0.9067522478627891  0.6041916116450445  1.0000
  C   C16       1.0  0.10527060218153683  0.7904907453694352  0.5932063760916151  1.0000
  C   C17       1.0  0.017423618442716338  0.7918540962608648  0.5710614437885961  1.0000
  C   C18       1.0  0.9739243640393132  0.9118889840876794  0.5600958937703648  1.0000
  Br  Br1       1.0  0.2683342882743873  0.9032434258640908  0.6343131010191183  1.0000
  H   H7        1.0  0.9843588695759593  0.35809951316921707  0.5627257428690753  1.0000
  H   H8        1.0  0.14024073747854549  0.11454549376473389  0.6020223076722675  1.0000
  H   H9        1.0  0.14024083718314762  0.6994645586266514  0.6020217231639042  1.0000
  H   H10       1.0  0.9061734329769926  0.9138784900565459  0.5430169203628727  1.0000
  H   H11       1.0  0.9843586269159253  0.465065523384832  0.5627276605578311  1.0000
  C   C19       1.0  0.0174235861675065  0.41061158690821964  0.1898189401171393  1.0000
  C   C20       1.0  0.042127572419295545  0.2790063458724277  0.19884467999766287  1.0000
  C   C21       1.0  0.054382129726014306  0.21372304027806166  0.08638409921628276  1.0000
  C   C22       1.0  0.04212771523055725  0.2790062937656428  0.9637622898279976  1.0000
  C   C23       1.0  0.017423626256903413  0.4106115900585354  0.9523040223128065  1.0000
  C   C24       1.0  0.00519088581457261  0.475778657547979  0.0659899469200016  1.0000
  Br  Br2       1.0  0.087983633081826  0.03471716691914306  0.10031505271004493  1.0000
  H   H12       1.0  0.00812557895225674  0.46014678924633845  0.5137232821660893  1.0000
  H   H13       1.0  0.05196165090016791  0.2266167089628086  0.2929211346107383  1.0000
  H   H14       1.0  0.05196198571219557  0.2266167490930331  0.8778402329933797  1.0000
  H   H15       1.0  0.9861381806375937  0.5772776664566486  0.05809089339250728  1.0000
  H   H16       1.0  0.008124388112142888  0.4601463137228501  0.6206896545801333  1.0000
  Zn  Zn1       1.0  0.9245795378696021  0.4115454769909912  0.5707827480984955  1.0000
  Zn  Zn2       1.0  0.11025957426133393  0.4096771719771395  0.5713396131533139  1.0000
  C   C25       1.0  0.017421737293007222  0.40543958894611865  0.80817802593357  1.0000
  C   C26       1.0  0.017419402458191735  0.4157846777181142  0.3339444688232389  1.0000
  C   C27       1.0  0.01741925523430954  0.6477282545421716  0.5658879972538715  1.0000
  C   C28       1.0  0.017421821157246775  0.1734944529537248  0.5762345665287643  1.0000
  O   O2        1.0  0.08788260449804097  0.4168061382969408  0.38252564024671853  1.0000
  O   O3        1.0  0.08788538653085287  0.4029991486807958  0.760019128479652  1.0000
  O   O4        1.0  0.08788243234056226  0.598650319865849  0.564368213229673  1.0000
  O   O5        1.0  0.08788549532830592  0.2211549770366763  0.578176457964273  1.0000
  O   O6        1.0  0.9469535534391462  0.600067672570429  0.563945903090677  1.0000
  O   O7        1.0  0.9469565076255956  0.4044180611926864  0.7595967491179698  1.0000
  O   O8        1.0  0.9469537256490295  0.4182250055666694  0.3821017000018816  1.0000
  O   O9        1.0  0.9469566164758361  0.22257383502059058  0.5777526150550016  1.0000
