data_image0
_chemical_formula_structural       NC9NC3OH6C6BrH5C8H10Zn2C4O8
_chemical_formula_sum              "N2 C30 O9 H21 Br1 Zn2"
_cell_length_a       15.78231758774541
_cell_length_b       10.302969083221269
_cell_length_c       9.275657083861812
_cell_angle_alpha    85.85419780113547
_cell_angle_beta     89.58874472212382
_cell_angle_gamma    89.63144763104107

_space_group_name_H-M_alt    "P 1"
_space_group_IT_number       1

loop_
  _space_group_symop_operation_xyz
  'x, y, z'

loop_
  _atom_site_type_symbol
  _atom_site_label
  _atom_site_symmetry_multiplicity
  _atom_site_fract_x
  _atom_site_fract_y
  _atom_site_fract_z
  _atom_site_occupancy
  N   N1        1.0  0.8059516361595547  0.40540148097497686  0.412635130254817  1.0000
  C   C1        1.0  0.7572842888015613  0.32348902724213824  0.4393630512345441  1.0000
  C   C2        1.0  0.6968620069178636  0.22181576335603892  0.472539286876148  1.0000
  C   C3        1.0  0.7163140669749385  0.09409734751110732  0.5141258419149226  1.0000
  C   C4        1.0  0.6394810355123648  0.03220039035035116  0.5343630647122668  1.0000
  C   C5        1.0  0.5778559635229503  0.12672684950315793  0.5036300747072346  1.0000
  C   C6        1.0  0.48473569853652937  0.10925082804607555  0.509413993543314  1.0000
  C   C7        1.0  0.4311679006808521  0.2164075613116312  0.47439111517430543  1.0000
  C   C8        1.0  0.3429373626025968  0.2020776798480599  0.4791417381875094  1.0000
  C   C9        1.0  0.28867827275824043  0.3123521510681968  0.44309069763114284  1.0000
  N   N2        1.0  0.24506684302546572  0.40099859190711284  0.4141088830952169  1.0000
  C   C10       1.0  0.30759305976934964  0.08043158789678495  0.5189696215696811  1.0000
  C   C11       1.0  0.360230267072099  0.9734964207722888  0.5539249274121318  1.0000
  C   C12       1.0  0.44827448934035563  0.9874326308068427  0.5493033998552361  1.0000
  O   O1        1.0  0.6144993208456512  0.2387524851282925  0.4670993090486597  1.0000
  H   H1        1.0  0.7787037639919889  0.05102585201686205  0.5280938780287112  1.0000
  H   H2        1.0  0.6305810400215719  0.9304249993749453  0.5675191984235015  1.0000
  H   H3        1.0  0.45793029971637694  0.311069765974467  0.44339271896348587  1.0000
  H   H4        1.0  0.23945640985642452  0.06829491195716608  0.5229907963664799  1.0000
  H   H5        1.0  0.3327386227984631  0.8794813782658275  0.5847118726816103  1.0000
  H   H6        1.0  0.4872207094436907  0.902732490516471  0.5769996209785178  1.0000
  C   C13       1.0  0.025513242678302683  0.021952522297140842  0.41337828636456786  1.0000
  C   C14       1.0  0.1132348030916035  0.01827148760154973  0.43796708791632555  1.0000
  C   C15       1.0  0.15674941955402866  0.8995076447380287  0.45016427001293735  1.0000
  C   C16       1.0  0.11323487101384933  0.7831891260578683  0.43796681461356557  1.0000
  C   C17       1.0  0.025513256192783773  0.784437539077382  0.4133781908399161  1.0000
  C   C18       1.0  0.9820760809648581  0.904415512890361  0.40120259327294305  1.0000
  Br  Br1       1.0  0.2760658399529001  0.8961551609859426  0.4836096632788316  1.0000
  H   H7        1.0  0.9924956981590678  0.35063969156245633  0.404122646004865  1.0000
  H   H8        1.0  0.14815509675204042  0.10728963139660541  0.4477555835239735  1.0000
  H   H9        1.0  0.14815519976571556  0.6922086932247749  0.44775493451516035  1.0000
  H   H10       1.0  0.9144218389500891  0.9063163746118165  0.38223895654510676  1.0000
  H   H11       1.0  0.9924954446424383  0.4576057117313672  0.4041247753104187  1.0000
  C   C19       1.0  0.027671548875791485  0.40121628346097116  0.9900656080318164  1.0000
  C   C20       1.0  0.07156299922422882  0.49974282016412586  0.05515328146707654  1.0000
  C   C21       1.0  0.10797275794026495  0.603900989806589  0.9715368783001077  1.0000
  C   C22       1.0  0.1017486049693066  0.6086342873807151  0.8208771020748222  1.0000
  C   C23       1.0  0.0596872248463034  0.5106706707244739  0.7543429666953383  1.0000
  C   C24       1.0  0.02335494713015862  0.405173780432853  0.8366909069289514  1.0000
  C   C25       1.0  0.15578157558740857  0.7075313568886068  0.04289721635269328  1.0000
  C   C26       1.0  0.24885088931369204  0.669551811808774  0.061054188088671246  1.0000
  H   H12       1.0  0.9896382129296969  0.19448398144937107  0.28776504236105205  1.0000
  H   H13       1.0  0.07594394613739053  0.49729194013560596  0.17189301074564045  1.0000
  H   H14       1.0  0.13031381159173727  0.6876975864237651  0.7545867291695632  1.0000
  H   H15       1.0  0.05750679180633855  0.5157519698221975  0.6373613279036001  1.0000
  H   H16       1.0  0.9233124344022858  0.2565502150570049  0.568520775133686  1.0000
  H   H17       1.0  0.15114126296730745  0.8018283960288082  0.9770413219965048  1.0000
  H   H18       1.0  0.1275997890159135  0.7225175013729948  0.1506791272391388  1.0000
  H   H19       1.0  0.25488279278994863  0.5771341105598642  0.12982262918802445  1.0000
  H   H20       1.0  0.2786687566328212  0.6573042390110306  0.9539794494589655  1.0000
  H   H21       1.0  0.2829251809071458  0.7471438577289771  0.11373514428834275  1.0000
  Zn  Zn1       1.0  0.9326707533972202  0.4041274733054785  0.4130687411031795  1.0000
  Zn  Zn2       1.0  0.11834763721353192  0.40226205856392316  0.41368705617130663  1.0000
  C   C27       1.0  0.0241689889441421  0.3992537275703638  0.6766605684546576  1.0000
  C   C28       1.0  0.026851428531062593  0.4071374226880651  0.15009537705709408  1.0000
  C   C29       1.0  0.025538181373442548  0.6402848458457993  0.40763385490270077  1.0000
  C   C30       1.0  0.02548217235134409  0.16610474560255462  0.4191221672518721  1.0000
  O   O2        1.0  0.09703959839644782  0.4084110319924874  0.20403747677858441  1.0000
  O   O3        1.0  0.09490527974040286  0.39656333028952906  0.6231873406007746  1.0000
  O   O4        1.0  0.09600996242012472  0.5911990231010407  0.40594636283558216  1.0000
  O   O5        1.0  0.09593485290886039  0.21377534859954528  0.42127834624865734  1.0000
  O   O6        1.0  0.9550834743395225  0.5926141839078085  0.40547745080724584  1.0000
  O   O7        1.0  0.9539787920478496  0.39798005054432384  0.6227183517110353  1.0000
  O   O8        1.0  0.9561131195967553  0.4098276989037366  0.2035667547623612  1.0000
  O   O9        1.0  0.9550083735546644  0.21519200673017735  0.42080773230897117  1.0000
