data_image0
_chemical_formula_structural       NC9NC3OH6C6H6C7NH5Zn2C4O8
_chemical_formula_sum              "N3 C29 O9 H17 Zn2"
_cell_length_a       15.78231758774541
_cell_length_b       10.681118228259551
_cell_length_c       10.302823150593486
_cell_angle_alpha    85.56070310861249
_cell_angle_beta     90.08385050025007
_cell_angle_gamma    89.63144314392761

_space_group_name_H-M_alt    "P 1"
_space_group_IT_number       1

loop_
  _space_group_symop_operation_xyz
  'x, y, z'

loop_
  _atom_site_type_symbol
  _atom_site_label
  _atom_site_symmetry_multiplicity
  _atom_site_fract_x
  _atom_site_fract_y
  _atom_site_fract_z
  _atom_site_occupancy
  N   N1        1.0  0.7978582780716875  0.36280273922458917  0.5703717512391158  1.0000
  C   C1        1.0  0.749327208986093  0.283669759187235  0.5944437056782044  1.0000
  C   C2        1.0  0.6890740835466892  0.18544649595148144  0.6243232026071439  1.0000
  C   C3        1.0  0.7087381819529515  0.06206224890680989  0.6617772813468934  1.0000
  C   C4        1.0  0.6320083344826866  0.002265412796027988  0.680003521468374  1.0000
  C   C5        1.0  0.5702265634649798  0.09358387680891211  0.6523244837248923  1.0000
  C   C6        1.0  0.4771357890673469  0.07670048848561728  0.6575336517692565  1.0000
  C   C7        1.0  0.4233894192561015  0.18022141344844078  0.625991013870667  1.0000
  C   C8        1.0  0.335183103278235  0.16637743979256947  0.6302695651983532  1.0000
  C   C9        1.0  0.28074019916554305  0.27291035976872435  0.5978009340845409  1.0000
  N   N2        1.0  0.23698099918969873  0.35854908281376696  0.5716990565608671  1.0000
  C   C10       1.0  0.30004187177934694  0.04885846479966682  0.6661397324599814  1.0000
  C   C11       1.0  0.35285730650331454  0.9455515664392268  0.697621512549438  1.0000
  C   C12       1.0  0.4408779648930882  0.9590152239323286  0.6934592283999585  1.0000
  O   O1        1.0  0.6066836605195058  0.20180812687149174  0.6194237980749406  1.0000
  H   H1        1.0  0.7711990981340733  0.020452654456604602  0.6743573068552631  1.0000
  H   H2        1.0  0.6232773929503425  0.9039437287699592  0.7098649139771618  1.0000
  H   H3        1.0  0.44999376606503383  0.2716720138181856  0.5980729433479228  1.0000
  H   H4        1.0  0.23192572471437664  0.03713333853547396  0.669761321188874  1.0000
  H   H5        1.0  0.3255226363264822  0.8547261698342963  0.725349144113838  1.0000
  H   H6        1.0  0.4799654003541322  0.8771888852125399  0.7184032625563803  1.0000
  C   C13       1.0  0.01742369314102077  0.9929258759573204  0.5710409934368827  1.0000
  C   C14       1.0  0.054620491634578716  0.9180522903567475  0.6742580910358504  1.0000
  C   C15       1.0  0.05462047868009945  0.7871700523064413  0.6742580316400848  1.0000
  C   C16       1.0  0.01742367891486607  0.7284162800519441  0.5710410495166636  1.0000
  C   C17       1.0  0.9802576720544632  0.8032781675966084  0.4679092480128575  1.0000
  C   C18       1.0  0.9802576849665163  0.9341704255703756  0.46790930074407666  1.0000
  H   H7        1.0  0.9798074328533098  0.29978637422191357  0.46666109738298656  1.0000
  H   H8        1.0  0.0837771474079918  0.9605454746980597  0.7551644833982496  1.0000
  H   H9        1.0  0.08377704323146373  0.7320414471114405  0.7551644601502707  1.0000
  H   H10       1.0  0.9510972146581281  0.7608305631335848  0.3869922917909663  1.0000
  H   H11       1.0  0.9510971924477979  0.9892550023826238  0.38699228116719975  1.0000
  H   H12       1.0  0.979807744816132  0.43785702031055485  0.4666607471300286  1.0000
  C   C19       1.0  0.01742369187190862  0.3606710789918057  0.18979294309571815  1.0000
  C   C20       1.0  0.928632025643631  0.37060791915795566  0.18769510646540044  1.0000
  C   C21       1.0  0.8844573347287241  0.37555148800682403  0.06954890521826718  1.0000
  C   C22       1.0  0.9286320091675042  0.37060783754468485  0.9523941125670463  1.0000
  C   C23       1.0  0.017423691365979765  0.3606710724907587  0.9522891097091151  1.0000
  C   C24       1.0  0.06135559707392635  0.35575454246754035  0.07153400335821969  1.0000
  C   C25       1.0  0.7934328894420289  0.38573800269430714  0.06852741080250868  1.0000
  N   N3        1.0  0.7202789767348823  0.39392478534962594  0.06770642837305507  1.0000
  H   H13       1.0  0.051056128979001913  0.3569075231580141  0.5179097864146718  1.0000
  H   H14       1.0  0.893613722806645  0.3745268812394502  0.27772638483694245  1.0000
  H   H15       1.0  0.8936137564117662  0.37452678870824885  0.8615768484407713  1.0000
  H   H16       1.0  0.12982853175690945  0.34809163060359727  0.07230243641589418  1.0000
  H   H17       1.0  0.051056100589934816  0.35690732240335277  0.6249270860212461  1.0000
  Zn  Zn1       1.0  0.9245796061682785  0.3615718807706032  0.5707622739755613  1.0000
  Zn  Zn2       1.0  0.11025964260050736  0.3597697203103818  0.5713191467789922  1.0000
  C   C26       1.0  0.01742178262297278  0.35568214694460853  0.8081609922109776  1.0000
  C   C27       1.0  0.017419493765980842  0.3656610145603192  0.33392056205079146  1.0000
  C   C28       1.0  0.01741931199027169  0.5893929548486105  0.5658674931468008  1.0000
  C   C29       1.0  0.01742190103911212  0.1319487026880377  0.5762141301415253  1.0000
  O   O2        1.0  0.08788269098985224  0.3666463086037659  0.3825024379204969  1.0000
  O   O3        1.0  0.08788543670761895  0.35332811007500764  0.7600013961862642  1.0000
  O   O4        1.0  0.087882491743833  0.5420525523534416  0.5643476785764598  1.0000
  O   O5        1.0  0.08788557259362273  0.1779218758987544  0.578156057996464  1.0000
  O   O6        1.0  0.9469536128116801  0.5434197257985833  0.5639253625612273  1.0000
  O   O7        1.0  0.946956557771553  0.35469678810478156  0.7595790109476126  1.0000
  O   O8        1.0  0.9469538121101867  0.3680149429932136  0.38207849177605446  1.0000
  O   O9        1.0  0.9469566937104895  0.1792905013311321  0.5777322091889971  1.0000
