data_image0
_chemical_formula_structural       NC9NC3OH6C6NCH9C7NH5Zn2C4O8
_chemical_formula_sum              "N4 C30 O9 H20 Zn2"
_cell_length_a       15.78231758774541
_cell_length_b       9.273386996610926
_cell_length_c       10.302823150593486
_cell_angle_alpha    85.4662123936278
_cell_angle_beta     90.08385050025007
_cell_angle_gamma    89.03191128213776

_space_group_name_H-M_alt    "P 1"
_space_group_IT_number       1

loop_
  _space_group_symop_operation_xyz
  'x, y, z'

loop_
  _atom_site_type_symbol
  _atom_site_label
  _atom_site_symmetry_multiplicity
  _atom_site_fract_x
  _atom_site_fract_y
  _atom_site_fract_z
  _atom_site_occupancy
  N   N1        1.0  0.7882018444279237  0.5700786837888641  0.5679989101735186  1.0000
  C   C1        1.0  0.7402314891923752  0.4789099463294484  0.5922086468310244  1.0000
  C   C2        1.0  0.680674345934699  0.36574738257764183  0.622259164984015  1.0000
  C   C3        1.0  0.7012127101169094  0.22359696665581663  0.6599280739407938  1.0000
  C   C4        1.0  0.624906566065629  0.15470531048775338  0.6782584291951788  1.0000
  C   C5        1.0  0.562477738314904  0.25991288723840533  0.6504203925039986  1.0000
  C   C6        1.0  0.46950659481786555  0.24046161424520807  0.6556589570237197  1.0000
  C   C7        1.0  0.41502670509660494  0.359727589380183  0.6239360738887285  1.0000
  C   C8        1.0  0.3269184835891457  0.3437780118585043  0.6282387296214447  1.0000
  C   C9        1.0  0.2717207174241428  0.4665140924093232  0.5955846089425751  1.0000
  N   N2        1.0  0.2273547057486891  0.565178066064399  0.5693336217400036  1.0000
  C   C10       1.0  0.2926099582121633  0.20838494852928147  0.664313514794252  1.0000
  C   C11       1.0  0.3461573963143515  0.0893655524453274  0.6959751674681511  1.0000
  C   C12       1.0  0.4340826550461685  0.10487696948854608  0.6917894411003132  1.0000
  O   O1        1.0  0.5981679890318815  0.38459754129844503  0.6173312724332385  1.0000
  H   H1        1.0  0.7639684600815186  0.1756587468335271  0.67258054790527  1.0000
  H   H2        1.0  0.6168723040968154  0.04142935660216751  0.7082910142931658  1.0000
  H   H3        1.0  0.4409830588917755  0.465087399811682  0.595858774349352  1.0000
  H   H4        1.0  0.22457689206600553  0.1948764852115339  0.6679555187015842  1.0000
  H   H5        1.0  0.31946628913474595  0.984726036357174  0.7238609394769897  1.0000
  H   H6        1.0  0.47374988873289653  0.010605226044937188  0.7168759470108435  1.0000
  C   C13       1.0  0.010388102032792279  0.1439452736277902  0.5693121626782169  1.0000
  C   C14       1.0  0.025266954033876354  0.2272548476923244  0.45197015172537314  1.0000
  C   C15       1.0  0.032167230842788275  0.16267496773458667  0.3345966355134993  1.0000
  C   C16       1.0  0.024293037813031715  0.012462173190775694  0.3315639431543633  1.0000
  C   C17       1.0  0.010907496490099255  0.9281730206197806  0.4485027157105177  1.0000
  C   C18       1.0  0.005176583780134747  0.9913002866331423  0.5680316462100132  1.0000
  N   N3        1.0  0.03047697479446443  0.942853862586152  0.2117645244847679  1.0000
  C   C19       1.0  0.04459333094608775  0.020592843976239505  0.08511517201036245  1.0000
  H   H7        1.0  0.027700297593823864  0.40589678329051515  0.7825118961906352  1.0000
  H   H8        1.0  0.029589016275072932  0.343852510406238  0.45039048526881276  1.0000
  H   H9        1.0  0.0428535375607455  0.23115784368856707  0.24644200548593775  1.0000
  H   H10       1.0  0.00690780488126963  0.8118165846217259  0.44644246364822227  1.0000
  H   H11       1.0  0.036376592431593746  0.8595901391560551  0.8843383905537792  1.0000
  H   H12       1.0  0.024486108577262078  0.8305535930608091  0.21443850003547027  1.0000
  H   H13       1.0  0.9920618118484579  0.09975261781984668  0.06239827723619151  1.0000
  H   H14       1.0  0.10592688511171788  0.07746015852601107  0.0855110784635722  1.0000
  H   H15       1.0  0.04672949482758115  0.9431324192018051  0.00826233815817834  1.0000
  C   C20       1.0  0.007782362567896994  0.5676228079704182  0.187423813565762  1.0000
  C   C21       1.0  0.9189202867088408  0.5790709952098756  0.18530867542750706  1.0000
  C   C22       1.0  0.8747105670673408  0.5847664578385077  0.06715386669607937  1.0000
  C   C23       1.0  0.9189202708110022  0.5790709011836073  0.9500076816712548  1.0000
  C   C24       1.0  0.00778236210803307  0.5676228004805921  0.9499199801904785  1.0000
  C   C25       1.0  0.05174910495312379  0.5619584891569627  0.06917343424528477  1.0000
  C   C26       1.0  0.7836139430270305  0.5965022939302513  0.06611463605212697  1.0000
  N   N4        1.0  0.7104020211002133  0.6059342480685608  0.06527939922361758  1.0000
  H   H16       1.0  0.04144146716407615  0.5632868328363736  0.515547209791881  1.0000
  H   H17       1.0  0.8838742152181801  0.5835860131575443  0.27533313030662954  1.0000
  H   H18       1.0  0.8838742494789512  0.5835859065527789  0.8591835940715686  1.0000
  H   H19       1.0  0.12027633685594785  0.5531300841156177  0.06995520956551049  1.0000
  H   H20       1.0  0.0414414401974994  0.5632866015478639  0.6225645097479995  1.0000
  Zn  Zn1       1.0  0.9149318940383798  0.5686606175011018  0.5683915760165204  1.0000
  Zn  Zn2       1.0  0.10062470006843749  0.5665843568348146  0.5689515866477701  1.0000
  C   C27       1.0  0.007815803476310279  0.5618750826124308  0.8058005491493518  1.0000
  C   C28       1.0  0.007742807193953372  0.5733716894806362  0.3315427443052259  1.0000
  C   C29       1.0  0.006157324352138227  0.831132215064287  0.563100125013404  1.0000
  C   C30       1.0  0.009401233615248028  0.30411282431393527  0.5742432400863613  1.0000
  O   O2        1.0  0.07819902290371639  0.5745068421556006  0.3801229046323207  1.0000
  O   O3        1.0  0.0782961375984792  0.559163007707213  0.757645051850883  1.0000
  O   O4        1.0  0.0769559447694188  0.7765915580048941  0.5616627370833016  1.0000
  O   O5        1.0  0.07953915230492647  0.3570783028874145  0.5761051218493969  1.0000
  O   O6        1.0  0.9360173784340399  0.7781666721585982  0.5612380406169581  1.0000
  O   O7        1.0  0.9373575605981268  0.5607398552858587  0.7572202835414161  1.0000
  O   O8        1.0  0.9372604462689882  0.5760836394564299  0.3796965754930479  1.0000
  O   O9        1.0  0.9386005757301978  0.3586550898688454  0.5756788900626943  1.0000
