data_image0
_chemical_formula_structural       NC9NC3OH6C6NCH9C6NCOH7Zn2C4O8
_chemical_formula_sum              "N4 C30 O10 H22 Zn2"
_cell_length_a       15.78231758774541
_cell_length_b       9.273386996610926
_cell_length_c       10.29962270195845
_cell_angle_alpha    85.48537362015259
_cell_angle_beta     90.10253899755935
_cell_angle_gamma    89.03191128213776

_space_group_name_H-M_alt    "P 1"
_space_group_IT_number       1

loop_
  _space_group_symop_operation_xyz
  'x, y, z'

loop_
  _atom_site_type_symbol
  _atom_site_label
  _atom_site_symmetry_multiplicity
  _atom_site_fract_x
  _atom_site_fract_y
  _atom_site_fract_z
  _atom_site_occupancy
  N   N1        1.0  0.7879021830073002  0.5695537023806725  0.5675904756772157  1.0000
  C   C1        1.0  0.7399368939159966  0.4783938403765422  0.5918071174213642  1.0000
  C   C2        1.0  0.6803860390480599  0.3652422933505255  0.6218662065652096  1.0000
  C   C3        1.0  0.7009322858491119  0.2231056871087418  0.6595458594257229  1.0000
  C   C4        1.0  0.6246299776191412  0.15422075097447085  0.6778814428530946  1.0000
  C   C5        1.0  0.5621953244638956  0.25941812211019144  0.6500354662137016  1.0000
  C   C6        1.0  0.4692252771920605  0.23996876961062896  0.6552755248736688  1.0000
  C   C7        1.0  0.41473874912094527  0.35922311491935743  0.6235435937568807  1.0000
  C   C8        1.0  0.3266314279898462  0.343275114780742  0.6278474766904969  1.0000
  C   C9        1.0  0.27142682860365297  0.4659992241072519  0.5951840424228134  1.0000
  N   N2        1.0  0.22705532363062164  0.5646535739706098  0.5689255679293375  1.0000
  C   C10       1.0  0.2923304516443908  0.20789527671486185  0.6639325510920042  1.0000
  C   C11       1.0  0.34588451528331  0.08888748800964796  0.6956032342835845  1.0000
  C   C12       1.0  0.43380889810747675  0.10439737053690945  0.6914163140653702  1.0000
  O   O1        1.0  0.5978786509314448  0.3840906454721651  0.616936908483861  1.0000
  H   H1        1.0  0.7636906834781322  0.17517210577007147  0.6722019421212728  1.0000
  H   H2        1.0  0.616602000287385  0.04095580724029335  0.7079225938270817  1.0000
  H   H3        1.0  0.44068922744330574  0.46457263202052634  0.5954582860268842  1.0000
  H   H4        1.0  0.2242981476261898  0.19438814858069287  0.6675755937695176  1.0000
  H   H5        1.0  0.3191992434973467  0.9842581950365201  0.7234969598556751  1.0000
  H   H6        1.0  0.47348138141171775  0.010134823978200425  0.7165099751341459  1.0000
  C   C13       1.0  0.010088715424187988  0.1434207736669617  0.5689041027470099  1.0000
  C   C14       1.0  0.02494301236455998  0.22668732934653257  0.4515286235758251  1.0000
  C   C15       1.0  0.03181872751994974  0.16206441945378747  0.33412163015969965  1.0000
  C   C16       1.0  0.023943899867142404  0.011850513104185278  0.33108807281785846  1.0000
  C   C17       1.0  0.01058282922300946  0.9276042310881952  0.44806019858093893  1.0000
  C   C18       1.0  0.004876929209874481  0.9907753172262056  0.5676232210506635  1.0000
  N   N3        1.0  0.030102767549226694  0.9421982832120966  0.2112544850295599  1.0000
  C   C19       1.0  0.044192620980179065  0.019890834082067155  0.08456900970241876  1.0000
  H   H7        1.0  0.027445525291364348  0.4054504438123294  0.7821646449601949  1.0000
  H   H8        1.0  0.029264744043791202  0.3432844129439032  0.44994850656774066  1.0000
  H   H9        1.0  0.042486586946312244  0.23051497731657467  0.24594185672116664  1.0000
  H   H10       1.0  0.006582706484578038  0.8112470397876226  0.44599935889477993  1.0000
  H   H11       1.0  0.03614312840339062  0.8591811299681753  0.8840201822152969  1.0000
  H   H12       1.0  0.024112460889777143  0.8298989939845064  0.2139292232499732  1.0000
  H   H13       1.0  0.9916563481313068  0.09904227975644853  0.061845635629076856  1.0000
  H   H14       1.0  0.10552625799343507  0.07675829377385668  0.08496502907583037  1.0000
  H   H15       1.0  0.04631270259083187  0.9424022345323303  0.007694255930824623  1.0000
  C   C20       1.0  0.007403061770660413  0.5669583051250155  0.18690683166751065  1.0000
  C   C21       1.0  0.9185444625511026  0.5790792350564904  0.18452653638855643  1.0000
  C   C22       1.0  0.8739188533173021  0.5875464473200283  0.06636170868093827  1.0000
  C   C23       1.0  0.9187299263475116  0.5793863824498411  0.9493544460116699  1.0000
  C   C24       1.0  0.007562599211603294  0.5672377986880732  0.9496204225809723  1.0000
  C   C25       1.0  0.051414181690533356  0.5616714486357479  0.06889789485613362  1.0000
  N   N4        1.0  0.7828936675562463  0.5977108927800698  0.06795395781976188  1.0000
  C   C26       1.0  0.7326968951967922  0.6770137651730408  0.969610264033288  1.0000
  O   O2        1.0  0.7663188789534835  0.7600318797689503  0.8824780174658682  1.0000
  H   H16       1.0  0.17496192168075386  0.5425508429987813  0.39875794053294  1.0000
  H   H17       1.0  0.8835332068263075  0.5832239581676484  0.2745701549660897  1.0000
  H   H18       1.0  0.8843393503111484  0.5794977865459376  0.8583980748113835  1.0000
  H   H19       1.0  0.11991533003056909  0.5523462023193932  0.06985540610562113  1.0000
  H   H20       1.0  0.04158919437406805  0.5603874321343427  0.6224307969153404  1.0000
  H   H21       1.0  0.7509937157571072  0.5532103899372238  0.15002126681556516  1.0000
  H   H22       1.0  0.6644144596945262  0.6687778583065263  0.972310946138625  1.0000
  Zn  Zn1       1.0  0.9146323147872502  0.5681357800468976  0.5679832535161351  1.0000
  Zn  Zn2       1.0  0.10032523800547355  0.5660597246843437  0.5685434238732827  1.0000
  C   C27       1.0  0.007565904571559923  0.5614372809139381  0.8054599402946112  1.0000
  C   C28       1.0  0.007393664811979672  0.5727600216224027  0.3310668679223978  1.0000
  C   C29       1.0  0.005856637808747234  0.8306054377279004  0.5626902932885214  1.0000
  C   C30       1.0  0.009102878886907195  0.30359013211986063  0.5738365865941102  1.0000
  O   O3        1.0  0.07786004643569466  0.5739129841168986  0.3796608842538314  1.0000
  O   O4        1.0  0.07803616164502136  0.5587075518735636  0.7572907081139393  1.0000
  O   O5        1.0  0.07665495743735362  0.7760642537122466  0.5612524953874909  1.0000
  O   O6        1.0  0.07924118719509798  0.3565562932719477  0.575698999401951  1.0000
  O   O7        1.0  0.9357163022297336  0.7776392121693179  0.5608276777894747  1.0000
  O   O8        1.0  0.9370974957573937  0.5602842437292377  0.7568658186523087  1.0000
  O   O9        1.0  0.9369213805870709  0.575489625122545  0.3792344335172162  1.0000
  O   O10       1.0  0.938302521426846  0.35813292399388574  0.575272646045673  1.0000
