data_image0
_chemical_formula_structural       NC9NC3OH6C6OCH8C7F3H5Zn2C4O8
_chemical_formula_sum              "N2 C30 O10 H19 F3 Zn2"
_cell_length_a       15.78231758774541
_cell_length_b       9.273888216677433
_cell_length_c       9.272291681409872
_cell_angle_alpha    86.26440928452506
_cell_angle_beta     90.49794672891421
_cell_angle_gamma    89.05820199757643

_space_group_name_H-M_alt    "P 1"
_space_group_IT_number       1

loop_
  _space_group_symop_operation_xyz
  'x, y, z'

loop_
  _atom_site_type_symbol
  _atom_site_label
  _atom_site_symmetry_multiplicity
  _atom_site_fract_x
  _atom_site_fract_y
  _atom_site_fract_z
  _atom_site_occupancy
  N   N1        1.0  0.7820538311260802  0.5556027895738842  0.4178357272578612  1.0000
  C   C1        1.0  0.7341680718331338  0.46470535900830146  0.44425133356285285  1.0000
  C   C2        1.0  0.6747159343218178  0.35187955644158264  0.47703991083958086  1.0000
  C   C3        1.0  0.6953858357687058  0.21015140014183986  0.5181394905823906  1.0000
  C   C4        1.0  0.6191437842525416  0.14146510730189354  0.5381407191561098  1.0000
  C   C5        1.0  0.5566177945871187  0.24636056216271296  0.5077681538398384  1.0000
  C   C6        1.0  0.4636650388046579  0.22696788173253335  0.5134854517450482  1.0000
  C   C7        1.0  0.4090742414247338  0.34587843421366427  0.47887113100888845  1.0000
  C   C8        1.0  0.3209811304849436  0.3299769703249382  0.4835671277111604  1.0000
  C   C9        1.0  0.26566919164677155  0.4523472073967787  0.4479365305384104  1.0000
  N   N2        1.0  0.221211393923905  0.5507170776638695  0.41929269801264923  1.0000
  C   C10       1.0  0.2867987977921559  0.1949879918970232  0.5229312194249955  1.0000
  C   C11       1.0  0.3404569343843975  0.07632332570799427  0.5574788130797652  1.0000
  C   C12       1.0  0.4283674917839015  0.09178793859688672  0.552910410938469  1.0000
  O   O1        1.0  0.592192445542926  0.37067437025182914  0.4716645212045587  1.0000
  H   H1        1.0  0.7581857098913911  0.16235509046264363  0.5319432922430587  1.0000
  H   H2        1.0  0.6112144112121649  0.028525788030821175  0.5709087976403093  1.0000
  H   H3        1.0  0.4349323731219557  0.45092374935517854  0.4482336461254115  1.0000
  H   H4        1.0  0.21877851970521286  0.18152025783273817  0.5269061282031082  1.0000
  H   H5        1.0  0.3138633797625224  0.9719961589465901  0.5879073144732903  1.0000
  H   H6        1.0  0.468122444585192  0.9977972458634886  0.5802836967427543  1.0000
  C   C13       1.0  0.004118605505754491  0.1296572920333341  0.4170994763418445  1.0000
  C   C14       1.0  0.9837949313965362  0.2120202716923476  0.2882587449525158  1.0000
  C   C15       1.0  0.9562858612086002  0.14652522305713922  0.16505036619471847  1.0000
  C   C16       1.0  0.9489418255196671  0.9956714478383638  0.17021920406939928  1.0000
  C   C17       1.0  0.9701406928269221  0.9120793802875053  0.296289609078354  1.0000
  C   C18       1.0  0.9991548026773609  0.9766515153289823  0.42004139052428235  1.0000
  O   O2        1.0  0.9364934072606522  0.23508645333333944  0.040449972895375996  1.0000
  C   C19       1.0  0.9076596047368857  0.18332259098276515  0.9076780511167093  1.0000
  H   H7        1.0  0.012496622857067097  0.20935067603524193  0.771913752158087  1.0000
  H   H8        1.0  0.9873560647474324  0.3288188599526336  0.2839972362358778  1.0000
  H   H9        1.0  0.9276382091813024  0.9416562534421536  0.07690607612699663  1.0000
  H   H10       1.0  0.9657353949364373  0.7956557740163015  0.2957949279937975  1.0000
  H   H11       1.0  0.008344186303116174  0.6796992221125274  0.6580353041050415  1.0000
  H   H12       1.0  0.8469209032740138  0.12601957613674153  0.924092143495487  1.0000
  H   H13       1.0  0.956129127178958  0.1097970816500955  0.8646087273418388  1.0000
  H   H14       1.0  0.8970220756529076  0.2764294364958255  0.8279349881133036  1.0000
  C   C20       1.0  0.9998747905626595  0.5494723294384225  0.9951909462030373  1.0000
  C   C21       1.0  0.05739708639558394  0.4580750924167447  0.07528414088005064  1.0000
  C   C22       1.0  0.11944826889977755  0.3795493920781796  0.006421102188826078  1.0000
  C   C23       1.0  0.1264445725647898  0.3920439220139498  0.8555958889017852  1.0000
  C   C24       1.0  0.06726182758267729  0.47868215515304047  0.7743103002129401  1.0000
  C   C25       1.0  0.003398622672226903  0.5568365179906236  0.8419498777423247  1.0000
  C   C26       1.0  0.19201260285624056  0.3039787407025223  0.7809230213901075  1.0000
  F   F1        1.0  0.2631080015810041  0.27883862380870394  0.8679929794197383  1.0000
  F   F2        1.0  0.21695260438517017  0.3758680117221227  0.6531854148632177  1.0000
  F   F3        1.0  0.15787021970242665  0.17294866802959974  0.7503916755695155  1.0000
  H   H15       1.0  0.8788373487407957  0.8422234159912647  0.07589791074503127  1.0000
  H   H16       1.0  0.055491767896014954  0.4494867255414341  0.19229443387341405  1.0000
  H   H17       1.0  0.16254135947766568  0.30983796426732546  0.07153558069795474  1.0000
  H   H18       1.0  0.06965525370616721  0.4825020849785997  0.6573438836182977  1.0000
  H   H19       1.0  0.8105528808291128  0.6971276119454475  0.7284503154263833  1.0000
  Zn  Zn1       1.0  0.9087852709746137  0.554189098772145  0.4182644830918003  1.0000
  Zn  Zn2       1.0  0.094480043610766  0.5521191004622303  0.41887568707978007  1.0000
  C   C27       1.0  0.0027643322745298793  0.549699249951261  0.6818743776063172  1.0000
  C   C28       1.0  0.0005030000168551041  0.5566107475641868  0.15526594706770558  1.0000
  C   C29       1.0  6.481123190238414e-05  0.8165016612294427  0.4137400333404151  1.0000
  C   C30       1.0  0.0032024681690678847  0.2898066049756147  0.42340036197259057  1.0000
  O   O3        1.0  0.07118406817971001  0.5582146206326715  0.20922050653592872  1.0000
  O   O4        1.0  0.07302130450676003  0.5465232044901025  0.6283832890158905  1.0000
  O   O5        1.0  0.07084046339150607  0.761969549401663  0.41186291100782046  1.0000
  O   O6        1.0  0.0733648454195861  0.34276828580392804  0.4257407762700709  1.0000
  O   O7        1.0  0.9299004057972402  0.7635399141383405  0.4113993936853575  1.0000
  O   O8        1.0  0.9320812364343559  0.5480953012450638  0.6279197008382926  1.0000
  O   O9        1.0  0.9302439932445228  0.5597866520559969  0.2087551847835898  1.0000
  O   O10       1.0  0.9324247709912236  0.3443403078523293  0.4252755625755076  1.0000
