data_image0
_chemical_formula_structural       NC9NC3OH6C6H6C6FH5Zn2C4O8
_chemical_formula_sum              "N2 C28 O9 H17 F1 Zn2"
_cell_length_a       15.78231758774541
_cell_length_b       10.681118228259551
_cell_length_c       9.275646106892307
_cell_angle_alpha    84.95237390848601
_cell_angle_beta     90.10253560025426
_cell_angle_gamma    89.63144314392761

_space_group_name_H-M_alt    "P 1"
_space_group_IT_number       1

loop_
  _space_group_symop_operation_xyz
  'x, y, z'

loop_
  _atom_site_type_symbol
  _atom_site_label
  _atom_site_symmetry_multiplicity
  _atom_site_fract_x
  _atom_site_fract_y
  _atom_site_fract_z
  _atom_site_occupancy
  N   N1        1.0  0.7974884478290418  0.3775043514317673  0.4106549547494178  1.0000
  C   C1        1.0  0.7489636059124748  0.2981238269439317  0.4374162065296785  1.0000
  C   C2        1.0  0.6887182099940906  0.19959329727218278  0.4706338142817288  1.0000
  C   C3        1.0  0.70839199738841  0.07582389041992776  0.5122722293879225  1.0000
  C   C4        1.0  0.6316668648605173  0.015839624384972772  0.5325346888459879  1.0000
  C   C5        1.0  0.5698779335581323  0.10744272636547181  0.5017633736225819  1.0000
  C   C6        1.0  0.4767885067191278  0.09050576945287658  0.507554505288009  1.0000
  C   C7        1.0  0.4230339771492614  0.19435106379688594  0.47248795193631943  1.0000
  C   C8        1.0  0.3348287679889729  0.18046309156832097  0.4772444992131393  1.0000
  C   C9        1.0  0.28037746457266227  0.2873299033963941  0.4411485015077685  1.0000
  N   N2        1.0  0.23661151230739833  0.3732370456487131  0.4121305454412558  1.0000
  C   C10       1.0  0.2996968157364019  0.06257524495488043  0.5171220496595514  1.0000
  C   C11       1.0  0.3525203944756962  0.9589446030458164  0.5521209462217969  1.0000
  C   C12       1.0  0.4405399761250249  0.9724510634756363  0.5474936553889294  1.0000
  O   O1        1.0  0.6063265195409392  0.21600531132189182  0.4651870526325488  1.0000
  H   H1        1.0  0.7708561678937873  0.034084929012444753  0.5262576841578481  1.0000
  H   H2        1.0  0.6229436481657644  0.9172108601000944  0.5657321695681687  1.0000
  H   H3        1.0  0.44963110183817434  0.28608876023286633  0.44145089940413973  1.0000
  H   H4        1.0  0.23158160553948762  0.05081287600671591  0.5211482390603204  1.0000
  H   H5        1.0  0.32519289715426763  0.86783406875769  0.5829462841245765  1.0000
  H   H6        1.0  0.47963386435322186  0.8903682122552247  0.5752244148569459  1.0000
  C   C13       1.0  0.01705403602450417  0.007620605998262198  0.4113989640903186  1.0000
  C   C14       1.0  0.0542775357281724  0.9316855852005561  0.5261473840353295  1.0000
  C   C15       1.0  0.05427752275832831  0.8008033477610476  0.5261473180039218  1.0000
  C   C16       1.0  0.017054021812856535  0.7431110095161881  0.41139902643528203  1.0000
  C   C17       1.0  0.9798613358075726  0.8190334551137943  0.29674543178932433  1.0000
  C   C18       1.0  0.9798613487332668  0.949925712545299  0.29674549041162823  1.0000
  H   H7        1.0  0.9794107737225851  0.3155544971223909  0.29535783888114664  1.0000
  H   H8        1.0  0.0834551211598693  0.9733467669519468  0.6160925665971115  1.0000
  H   H9        1.0  0.08345501697732716  0.7448427396043987  0.6160925407518896  1.0000
  H   H10       1.0  0.9506799460201915  0.7774179618743636  0.20678850518306335  1.0000
  H   H11       1.0  0.9506799238071129  0.005842401232652339  0.2067884933724191  1.0000
  H   H12       1.0  0.9794110855948004  0.4536251468128654  0.29535744949823983  1.0000
  C   C19       1.0  0.016955409774325192  0.37928638138833515  0.987558220633856  1.0000
  C   C20       1.0  0.09453828191453151  0.3916210263872786  0.05987977467266159  1.0000
  C   C21       1.0  0.17107087806608012  0.39220712307113437  0.9846911280946071  1.0000
  C   C22       1.0  0.17136468573214336  0.3803431761061822  0.8363158598053935  1.0000
  C   C23       1.0  0.09510958083209653  0.3700836846067439  0.7620668085924911  1.0000
  C   C24       1.0  0.017152605058726955  0.37144522115347134  0.8352397655483523  1.0000
  F   F1        1.0  0.24527312463556017  0.40279230893555407  0.05637568319962094  1.0000
  H   H13       1.0  0.8204780476614353  0.2794543075859717  0.10005089971283421  1.0000
  H   H14       1.0  0.09604259346203436  0.3978343295718354  0.17581208198912246  1.0000
  H   H15       1.0  0.230782740478362  0.380289664806436  0.7782001587936036  1.0000
  H   H16       1.0  0.09704178835123001  0.3640790762664716  0.6461403750597823  1.0000
  H   H17       1.0  0.8841372533495123  0.30939088995377095  0.5599470372694024  1.0000
  Zn  Zn1       1.0  0.9242098769498808  0.3762694770289958  0.4110891063386617  1.0000
  Zn  Zn2       1.0  0.10989005743942282  0.3744615899555719  0.4117081924764281  1.0000
  C   C25       1.0  0.017113466031000835  0.3679384484838999  0.6750097982411378  1.0000
  C   C26       1.0  0.016988496013007115  0.3827941775516861  0.14778764899647512  1.0000
  C   C27       1.0  0.017048316542010555  0.6041408866887503  0.4056474849489604  1.0000
  C   C28       1.0  0.017053582160283742  0.1465902346687198  0.4171500390267948  1.0000
  O   O2        1.0  0.08746426087252557  0.3832798788513878  0.20179704883130523  1.0000
  O   O3        1.0  0.08756466171948807  0.3660796618343636  0.6214698549800206  1.0000
  O   O4        1.0  0.08751110313504817  0.5568161132387259  0.4039578780464914  1.0000
  O   O5        1.0  0.08751775607171797  0.19254343802343876  0.41930891733460407  1.0000
  O   O6        1.0  0.9465821149540508  0.5581876295795059  0.40348838126163034  1.0000
  O   O7        1.0  0.9466356735166696  0.3674526834716356  0.6210002812381614  1.0000
  O   O8        1.0  0.9465352723223177  0.384652872899941  0.2013257398006496  1.0000
  O   O9        1.0  0.9465887675432229  0.1939164221139551  0.4188377165153234  1.0000
