data_image0
_chemical_formula_structural       NC9NC3OH6C6FH5C6OCH8Zn2C4O8
_chemical_formula_sum              "N2 C29 O10 H19 F1 Zn2"
_cell_length_a       15.78231758774541
_cell_length_b       9.275642734913903
_cell_length_c       9.273891588657152
_cell_angle_alpha    85.99709959314173
_cell_angle_beta     89.76748324947235
_cell_angle_gamma    90.2347076146716

_space_group_name_H-M_alt    "P 1"
_space_group_IT_number       1

loop_
  _space_group_symop_operation_xyz
  'x, y, z'

loop_
  _atom_site_type_symbol
  _atom_site_label
  _atom_site_symmetry_multiplicity
  _atom_site_fract_x
  _atom_site_fract_y
  _atom_site_fract_z
  _atom_site_occupancy
  N   N1        1.0  0.8126909492069873  0.5550538644859364  0.4105722996984258  1.0000
  C   C1        1.0  0.7635095278050624  0.4641646686405203  0.4374273356111924  1.0000
  C   C2        1.0  0.7024491558052636  0.3513490875036325  0.47076135173919464  1.0000
  C   C3        1.0  0.7210995065300634  0.20963373912854277  0.512546114372358  1.0000
  C   C4        1.0  0.6438780905464563  0.14095368340064884  0.532879387055748  1.0000
  C   C5        1.0  0.582846461157457  0.24583967548219565  0.5019996956114721  1.0000
  C   C6        1.0  0.48961666874862536  0.22644878136785263  0.5078107258869868  1.0000
  C   C7        1.0  0.4367212688903063  0.34534854043505003  0.47262156357667373  1.0000
  C   C8        1.0  0.3484009358591047  0.3294485441534807  0.4773944164295332  1.0000
  C   C9        1.0  0.29483379061273174  0.4518076704651022  0.4411722548400814  1.0000
  N   N2        1.0  0.25177859238326095  0.5501686085982354  0.4120528812313249  1.0000
  C   C10       1.0  0.3122934435355759  0.19447184362580172  0.5174110608302425  1.0000
  C   C11       1.0  0.3642596520757908  0.07581795028255223  0.5525323062846561  1.0000
  C   C12       1.0  0.45239119983769294  0.09128113537185967  0.5478891597356654  1.0000
  O   O1        1.0  0.62019292220529  0.3701422298727932  0.46529508180079615  1.0000
  H   H1        1.0  0.7832187325374116  0.16184172835344302  0.526580999522628  1.0000
  H   H2        1.0  0.6343392655134662  0.028024576532584833  0.566193465329135  1.0000
  H   H3        1.0  0.46407755484417834  0.4503842993000635  0.44147627841066117  1.0000
  H   H4        1.0  0.2440807375449148  0.18100535169748855  0.5214510634100462  1.0000
  H   H5        1.0  0.3361781818848613  0.9715002746358185  0.5834651362475076  1.0000
  H   H6        1.0  0.49080595884225875  0.9972989787986781  0.5757168156914616  1.0000
  C   C13       1.0  0.029616791378721752  0.1291019994278606  0.411923522616666  1.0000
  C   C14       1.0  0.013637001617792022  0.2114175350931662  0.28165685616572866  1.0000
  C   C15       1.0  0.005647874520767315  0.14505830266459796  0.151861770043193  1.0000
  C   C16       1.0  0.013582557589619126  0.9956625755948361  0.15003972443598013  1.0000
  C   C17       1.0  0.02803753288208699  0.9117563202545169  0.27828492527437043  1.0000
  C   C18       1.0  0.034860744745123684  0.9761094142918159  0.4107141277643369  1.0000
  F   F1        1.0  0.9911779875523848  0.22619360778676234  0.02713617245615252  1.0000
  H   H7        1.0  0.11613054406782108  0.2101907534123164  0.7341696136416827  1.0000
  H   H8        1.0  0.009316944955147788  0.3280743310155674  0.2797975927659653  1.0000
  H   H9        1.0  0.007721286921791082  0.9443567127023241  0.04921332066366757  1.0000
  H   H10       1.0  0.03187649447838625  0.7955179336061864  0.2743364679950191  1.0000
  H   H11       1.0  0.0897171623087134  0.6800475418049873  0.6294921105822262  1.0000
  C   C19       1.0  0.03360309915149973  0.5487707289590471  0.9880536366168764  1.0000
  C   C20       1.0  0.10336494760941006  0.6089134883920562  0.05677432181070241  1.0000
  C   C21       1.0  0.16838759945852488  0.6798788445987258  0.9770799795983547  1.0000
  C   C22       1.0  0.16388156688321542  0.6910602492249112  0.8256080480273615  1.0000
  C   C23       1.0  0.09589431642455382  0.6300244414664125  0.755552413829768  1.0000
  C   C24       1.0  0.03087439825255367  0.5564406369565398  0.8345840096751465  1.0000
  O   O2        1.0  0.23582463172877777  0.7382716838120214  0.05242830581660285  1.0000
  C   C25       1.0  0.30606403652262704  0.8133949987619651  0.9854788214350108  1.0000
  H   H12       1.0  0.8315278168132109  0.4624345599681263  0.09851781542091564  1.0000
  H   H13       1.0  0.10655816276490526  0.603849641086116  0.1737263248798815  1.0000
  H   H14       1.0  0.21302897493015083  0.7455884418339376  0.7607718521972782  1.0000
  H   H15       1.0  0.09525669804406456  0.6374648859207095  0.6384583197274756  1.0000
  H   H16       1.0  0.8960781016280864  0.4925826667815816  0.5587815149900908  1.0000
  H   H17       1.0  0.2839253114481699  0.9112421558612873  0.9208672085178122  1.0000
  H   H18       1.0  0.34094799926456165  0.7414263543809902  0.9152874714955668  1.0000
  H   H19       1.0  0.34964778695751497  0.8473845028582458  0.07041938816865811  1.0000
  Zn  Zn1       1.0  0.9394021039096396  0.5536403082267936  0.41100788572783853  1.0000
  Zn  Zn2       1.0  0.12506729833441188  0.5515705009271206  0.41162909461108455  1.0000
  C   C26       1.0  0.03135273513970471  0.5492455662476607  0.6745798581494189  1.0000
  C   C27       1.0  0.03311870537238404  0.5559670412688662  0.14805726784451534  1.0000
  C   C28       1.0  0.03388366324195502  0.8159549948723526  0.4051990260584122  1.0000
  C   C29       1.0  0.03058770294043156  0.28925588133448543  0.41743817904257274  1.0000
  O   O3        1.0  0.10341507312372022  0.5575904165437622  0.20199170265302602  1.0000
  O   O4        1.0  0.10197194855820957  0.5460501633856059  0.6211164931470654  1.0000
  O   O5        1.0  0.10401475035710006  0.7614214241689898  0.40358956000037516  1.0000
  O   O6        1.0  0.10137220838210426  0.34221916580424927  0.41951852750099183  1.0000
  O   O7        1.0  0.9630971305035629  0.76299164405749  0.40311845261835977  1.0000
  O   O8        1.0  0.9610543396759901  0.5476221152916199  0.6206453064384272  1.0000
  O   O9        1.0  0.9624974695725893  0.5591623024913313  0.20151878308387627  1.0000
  O   O10       1.0  0.9604546044153144  0.3437910424157722  0.4190457160109955  1.0000
