data_image0
_chemical_formula_structural       NC9NC3OH6C9H8C6BrH5Zn2C4O8
_chemical_formula_sum              "N2 C31 O9 H19 Br1 Zn2"
_cell_length_a       15.78231758774541
_cell_length_b       9.275152443626249
_cell_length_c       10.302972455390005
_cell_angle_alpha    85.36323497079522
_cell_angle_beta     90.08385913268748
_cell_angle_gamma    90.20707041648352

_space_group_name_H-M_alt    "P 1"
_space_group_IT_number       1

loop_
  _space_group_symop_operation_xyz
  'x, y, z'

loop_
  _atom_site_type_symbol
  _atom_site_label
  _atom_site_symmetry_multiplicity
  _atom_site_fract_x
  _atom_site_fract_y
  _atom_site_fract_z
  _atom_site_occupancy
  N   N1        1.0  0.8071204180689083  0.5697870631735233  0.5655296800990399  1.0000
  C   C1        1.0  0.7580515245194775  0.47863525454998745  0.5898836503921743  1.0000
  C   C2        1.0  0.6971308281904346  0.3654937035984598  0.6201131975410559  1.0000
  C   C3        1.0  0.715956349974197  0.22336968313386962  0.6580069969175437  1.0000
  C   C4        1.0  0.638820095453136  0.15449081924335895  0.6764463417924604  1.0000
  C   C5        1.0  0.5776589671143743  0.25967886033788057  0.6484418598539792  1.0000
  C   C6        1.0  0.4844534453800813  0.2402311991959445  0.653711196226157  1.0000
  C   C7        1.0  0.43141065182152644  0.3594750282034447  0.621799628932501  1.0000
  C   C8        1.0  0.3431102457793032  0.3435284123137563  0.62612751674272  1.0000
  C   C9        1.0  0.2893913888345423  0.4662417023834029  0.593279222161218  1.0000
  N   N2        1.0  0.24621422936679974  0.5648873554318894  0.5668721442114288  1.0000
  C   C10       1.0  0.3071703007890182  0.20816048970555712  0.6624164989521504  1.0000
  C   C11       1.0  0.3592836138848493  0.08916319396291406  0.6942664456223768  1.0000
  C   C12       1.0  0.4473957775338613  0.10467173073482705  0.69005618036111  1.0000
  O   O1        1.0  0.614851606409292  0.3843403620985726  0.6151554819418514  1.0000
  H   H1        1.0  0.7781344680296967  0.17544036480279512  0.670735312736296  1.0000
  H   H2        1.0  0.629420914113045  0.041235899209433935  0.7066581359718451  1.0000
  H   H3        1.0  0.4586365393498312  0.46481527469581096  0.5935556461868048  1.0000
  H   H4        1.0  0.23897446432885652  0.19465453473603667  0.666079873148667  1.0000
  H   H5        1.0  0.3313316521636086  0.9845431080646853  0.7223177612984932  1.0000
  H   H6        1.0  0.48592708322047334  0.010417492318547827  0.7152918282574676  1.0000
  C   C13       1.0  0.02417196726992188  0.1437327718284518  0.5675187189990563  1.0000
  C   C14       1.0  0.9936074447170413  0.22681322404118953  0.45712994967402687  1.0000
  C   C15       1.0  0.9709186519250098  0.16162504798694655  0.3447002552899905  1.0000
  C   C16       1.0  0.9784381250528025  0.01219920157009291  0.34043353971692314  1.0000
  C   C17       1.0  0.007345828918936315  0.9274490903046612  0.4498851052500241  1.0000
  C   C18       1.0  0.029170705483663406  0.9909305112824257  0.5648943415386596  1.0000
  C   C19       1.0  0.9554831791320261  0.9453058320871435  0.224007173469569  1.0000
  C   C20       1.0  0.9362637759576626  0.8892649347549911  0.12651835149323065  1.0000
  C   C21       1.0  0.9129448292046773  0.8212572140709676  0.008232764946143112  1.0000
  H   H7        1.0  0.14591703925082156  0.22402572534922816  0.8271727437232863  1.0000
  H   H8        1.0  0.9891443017022308  0.34338051255632984  0.456707926964784  1.0000
  H   H9        1.0  0.948265724642187  0.22811758360738188  0.260547753647278  1.0000
  H   H10       1.0  0.010913108640951519  0.8110992542250878  0.44627428855462026  1.0000
  H   H11       1.0  0.10842194324386956  0.6947467860059531  0.7424766915780585  1.0000
  H   H12       1.0  0.9284337813255794  0.7043625501213657  0.020408855816059335  1.0000
  H   H13       1.0  0.8439847433648552  0.8346092784008432  0.9902485664225429  1.0000
  H   H14       1.0  0.948725551746861  0.8732064792046902  0.9243063198255794  1.0000
  C   C22       1.0  0.026671306561182995  0.5673316142172775  0.18496399537900743  1.0000
  C   C23       1.0  0.05051251209946006  0.4211049301417682  0.1944426850143801  1.0000
  C   C24       1.0  0.062339083586329114  0.34856859931314976  0.08220679176848056  1.0000
  C   C25       1.0  0.0505126545691188  0.42110487224587945  0.9593602950240516  1.0000
  C   C26       1.0  0.026671346671232943  0.5673316177175962  0.9474490775638325  1.0000
  C   C27       1.0  0.014865830012267933  0.6397387962988403  0.0609107146957617  1.0000
  Br  Br1       1.0  0.09476705605595481  0.1496750363721684  0.09675383521288894  1.0000
  H   H15       1.0  0.017698043382575968  0.622370215460694  0.5086978506177142  1.0000
  H   H16       1.0  0.06000313337484564  0.36289476446052404  0.28869945063185054  1.0000
  H   H17       1.0  0.06000346844995996  0.36289480904924765  0.873618548876375  1.0000
  H   H18       1.0  0.9964785344089334  0.7525144228077338  0.05266232894683931  1.0000
  H   H19       1.0  0.01769684942501404  0.6223696871061819  0.6156642246683819  1.0000
  Zn  Zn1       1.0  0.9338333806816992  0.568369260203258  0.565924589162504  1.0000
  Zn  Zn2       1.0  0.11950116879577721  0.5662933850719409  0.5664878844194277  1.0000
  C   C28       1.0  0.026635550981624956  0.5615850033217618  0.8033408818178944  1.0000
  C   C29       1.0  0.02670103672144486  0.5730794393768148  0.32907171970136284  1.0000
  C   C30       1.0  0.028221470616762945  0.8307921251684933  0.5602169608796452  1.0000
  C   C31       1.0  0.025115043505031576  0.30387058513695053  0.5721957150316757  1.0000
  O   O2        1.0  0.09717093527641807  0.5742143850080077  0.37764937553294686  1.0000
  O   O3        1.0  0.0970832011241698  0.5588734282744925  0.7551903837013525  1.0000
  O   O4        1.0  0.09836290145239213  0.7762615943741962  0.5588660898736912  1.0000
  O   O5        1.0  0.09589117165323513  0.35682622993574387  0.5739735717940251  1.0000
  O   O6        1.0  0.9574433144649465  0.7778364160494198  0.5584389015888473  1.0000
  O   O7        1.0  0.9561636243587041  0.5604499830528133  0.7547631208253864  1.0000
  O   O8        1.0  0.9562513582705985  0.5757908895177271  0.37722055192953774  1.0000
  O   O9        1.0  0.954971594583081  0.35840272412798857  0.5735448455581404  1.0000
