data_image0
_chemical_formula_structural       NC9NC3OH6C6ClH5C7NH5Zn2C4O8
_chemical_formula_sum              "N3 C29 O9 H16 Cl1 Zn2"
_cell_length_a       15.78231758774541
_cell_length_b       10.30297070629231
_cell_length_c       10.302823150593486
_cell_angle_alpha    85.56070101248984
_cell_angle_beta     90.08385050025007
_cell_angle_gamma    89.63144908567993

_space_group_name_H-M_alt    "P 1"
_space_group_IT_number       1

loop_
  _space_group_symop_operation_xyz
  'x, y, z'

loop_
  _atom_site_type_symbol
  _atom_site_label
  _atom_site_symmetry_multiplicity
  _atom_site_fract_x
  _atom_site_fract_y
  _atom_site_fract_z
  _atom_site_occupancy
  N   N1        1.0  0.7978583736545443  0.4128213721867042  0.5703716996847508  1.0000
  C   C1        1.0  0.7493272990188022  0.3307839927305911  0.5944436571174132  1.0000
  C   C2        1.0  0.6890741666903161  0.22895566383806787  0.6243231577621051  1.0000
  C   C3        1.0  0.7087382564427808  0.10104287338164353  0.6617772411694391  1.0000
  C   C4        1.0  0.632008404778547  0.03905132785941534  0.6800034835530138  1.0000
  C   C5        1.0  0.5702266401656407  0.1337214322841196  0.6523244423549854  1.0000
  C   C6        1.0  0.4771358645838581  0.11621837687373016  0.6575336110380425  1.0000
  C   C7        1.0  0.42338950203325704  0.22353880634339118  0.6259909692232919  1.0000
  C   C8        1.0  0.3351831850844161  0.2091867205322535  0.6302695210746905  1.0000
  C   C9        1.0  0.2807402884436205  0.31962969356986726  0.5978008859307744  1.0000
  N   N2        1.0  0.2369810944742169  0.40841159481087663  0.5716990051674165  1.0000
  C   C10       1.0  0.3000419453431031  0.08735447384780826  0.6661396927820216  1.0000
  C   C11       1.0  0.35285737282143764  0.9802559263492946  0.6976214767795434  1.0000
  C   C12       1.0  0.4408780321555116  0.9942137373417198  0.6934591921207383  1.0000
  O   O1        1.0  0.6066837448106878  0.24591781190417294  0.619423752610947  1.0000
  H   H1        1.0  0.7711991697055319  0.05790609163381655  0.6743572682518855  1.0000
  H   H2        1.0  0.6232774563502178  0.9371209658611291  0.7098648797812774  1.0000
  H   H3        1.0  0.44999385525625735  0.31834589689502524  0.5980728952410024  1.0000
  H   H4        1.0  0.23192579745576794  0.07519900299289617  0.6697612819544718  1.0000
  H   H5        1.0  0.32552269627438724  0.8860969862712966  0.7253491117798374  1.0000
  H   H6        1.0  0.4799654618775039  0.9093841454839252  0.7184032293726226  1.0000
  C   C13       1.0  0.01742376278183433  0.029369004165555213  0.5710409558748342  1.0000
  C   C14       1.0  0.10491764450917929  0.0253473504578845  0.5963117198294365  1.0000
  C   C15       1.0  0.14832977337374653  0.9063950693176626  0.6088503076654399  1.0000
  C   C16       1.0  0.10491764383272595  0.7902393817946687  0.596311658769298  1.0000
  C   C17       1.0  0.017423771824506273  0.7918539458875581  0.5710410302213751  1.0000
  C   C18       1.0  0.9741033241277458  0.9120068385350923  0.5585288033048439  1.0000
  Cl  Cl1       1.0  0.2576304775945941  0.9028745825951734  0.6404194232341713  1.0000
  H   H7        1.0  0.9844663499356221  0.35818700900375466  0.5615211748397038  1.0000
  H   H8        1.0  0.1397160876234198  0.11427310554941195  0.6063624053458456  1.0000
  H   H9        1.0  0.13971605411500376  0.6990719130576463  0.6063623119682282  1.0000
  H   H10       1.0  0.9066253873833948  0.9141801327151746  0.539039190437165  1.0000
  H   H11       1.0  0.9844663458034676  0.46515904236947764  0.5615214199440521  1.0000
  C   C19       1.0  0.017423787305256955  0.41061147412263743  0.1897928916219931  1.0000
  C   C20       1.0  0.9286321217739196  0.4209130238294774  0.18769505461576763  1.0000
  C   C21       1.0  0.8844574312057392  0.4260380353396038  0.06954885318162152  1.0000
  C   C22       1.0  0.9286321052977866  0.4209129392207738  0.9523940607174173  1.0000
  C   C23       1.0  0.017423786799327656  0.41061146738298415  0.9522890582353907  1.0000
  C   C24       1.0  0.06135569216244363  0.40551448709825655  0.07153395207048563  1.0000
  C   C25       1.0  0.7934329866334957  0.4365984233138447  0.0685273583805106  1.0000
  N   N3        1.0  0.7202790745005448  0.44508568355479716  0.0677063756413534  1.0000
  H   H12       1.0  0.05105622414838584  0.4067097853716857  0.5179097350833208  1.0000
  H   H13       1.0  0.8936138192117974  0.4249758226676099  0.2777263328390571  1.0000
  H   H14       1.0  0.8936138528169122  0.4249757267402572  0.8615767964428893  1.0000
  H   H15       1.0  0.12982862630797332  0.39757032515687296  0.07230238541804535  1.0000
  H   H16       1.0  0.05105619575930498  0.40670957724877255  0.6249270346899025  1.0000
  Zn  Zn1       1.0  0.9245797016648065  0.4115453378202649  0.5707622224677591  1.0000
  Zn  Zn2       1.0  0.11025973797063737  0.40967703308251613  0.571319095339365  1.0000
  C   C26       1.0  0.017421877706413014  0.4054394344592318  0.8081609409259822  1.0000
  C   C27       1.0  0.017419589549308112  0.41578455413936966  0.3339205103882992  1.0000
  C   C28       1.0  0.017419423465479422  0.6477280759581976  0.565867433020605  1.0000
  C   C29       1.0  0.017421980430565975  0.173494353472325  0.5762140873202901  1.0000
  O   O2        1.0  0.08788278684228512  0.4168060112016452  0.38250238622073107  1.0000
  O   O3        1.0  0.08788553162595414  0.40299899792020644  0.7600013449903209  1.0000
  O   O4        1.0  0.08788259989872849  0.5986501496464625  0.564347620241135  1.0000
  O   O5        1.0  0.0878856552094951  0.22115486940018236  0.5781560134360793  1.0000
  O   O6        1.0  0.9469537210624652  0.6000675021415725  0.5639253041741827  1.0000
  O   O7        1.0  0.9469566527858827  0.4044179102223693  0.7595789596998928  1.0000
  O   O8        1.0  0.9469539080586117  0.41822487826176125  0.38207844002451363  1.0000
  O   O9        1.0  0.9469567764223535  0.22257372717447899  0.5777321645768376  1.0000
