data_image0
_chemical_formula_structural       NC9NC3OH6C6FH5C7H8Zn2C4O8
_chemical_formula_sum              "N2 C29 O9 H19 F1 Zn2"
_cell_length_a       15.78231758774541
_cell_length_b       9.275642734913903
_cell_length_c       9.274345330872308
_cell_angle_alpha    85.0458555401147
_cell_angle_beta     89.64000707228583
_cell_angle_gamma    90.2347076146716

_space_group_name_H-M_alt    "P 1"
_space_group_IT_number       1

loop_
  _space_group_symop_operation_xyz
  'x, y, z'

loop_
  _atom_site_type_symbol
  _atom_site_label
  _atom_site_symmetry_multiplicity
  _atom_site_fract_x
  _atom_site_fract_y
  _atom_site_fract_z
  _atom_site_occupancy
  N   N1        1.0  0.814840392129911  0.5815515479331346  0.4085617020465364  1.0000
  C   C1        1.0  0.7656226536517979  0.49021464613642274  0.43545070910007055  1.0000
  C   C2        1.0  0.7045172028069249  0.3768433466065455  0.46882689216309137  1.0000
  C   C3        1.0  0.7231110464239706  0.23443139566629356  0.5106645117746622  1.0000
  C   C4        1.0  0.6458621329901423  0.16541235967342316  0.5310235056848216  1.0000
  C   C5        1.0  0.5848722633705395  0.27081315358501357  0.5001047519824149  1.0000
  C   C6        1.0  0.4916346124866741  0.25132538256289205  0.5059231331074361  1.0000
  C   C7        1.0  0.43878680025746053  0.3708117875552195  0.4706894571353195  1.0000
  C   C8        1.0  0.35046001271764243  0.35483222204001263  0.47546834756178935  1.0000
  C   C9        1.0  0.29694185206419355  0.4777952156249856  0.43920036558489617  1.0000
  N   N2        1.0  0.25392603306003214  0.5766416089593336  0.41004415648862946  1.0000
  C   C10       1.0  0.31429840437921724  0.21918839561805847  0.5155356123029224  1.0000
  C   C11       1.0  0.3662171171368483  0.09994898860586687  0.5507012855055302  1.0000
  C   C12       1.0  0.4543549440006486  0.11548958056774272  0.5460522654590869  1.0000
  O   O1        1.0  0.6222683614496003  0.395727618311402  0.4633537074908547  1.0000
  H   H1        1.0  0.7852112925277005  0.18640540636932768  0.5247171508039685  1.0000
  H   H2        1.0  0.6362782560747893  0.05192786680053696  0.5643797256721967  1.0000
  H   H3        1.0  0.4661852051531187  0.47636677601906574  0.4395047737398621  1.0000
  H   H4        1.0  0.2460802349409567  0.205654551957128  0.5195807254138305  1.0000
  H   H5        1.0  0.338093815315303  0.9951156252456713  0.5816732449457891  1.0000
  H   H6        1.0  0.49273207061832164  0.021043503289986276  0.573915122902634  1.0000
  C   C13       1.0  0.03176440699201821  0.1555771563536279  0.40991463423763386  1.0000
  C   C14       1.0  0.015960781748822095  0.2400643950103203  0.27948318278034723  1.0000
  C   C15       1.0  0.00814718143369686  0.17586900375831127  0.14952390819215444  1.0000
  C   C16       1.0  0.016084328523425784  0.02650365239404251  0.1476995577297926  1.0000
  C   C17       1.0  0.03036587300221827  0.9404593943406755  0.27610698645663745  1.0000
  C   C18       1.0  0.037009995868613865  0.0026047332935006384  0.4087037095224173  1.0000
  F   F1        1.0  0.9938459655869956  0.2590836355475503  0.024640534951907878  1.0000
  H   H7        1.0  0.11784237415928334  0.2312936779864907  0.7325683608121141  1.0000
  H   H8        1.0  0.011643239438076547  0.35675218710386103  0.2776215674455911  1.0000
  H   H9        1.0  0.010359409197650438  0.9768786876825369  0.04674561035758229  1.0000
  H   H10       1.0  0.03421017424596062  0.8242868332540066  0.27215353444935175  1.0000
  H   H11       1.0  0.09157055172879303  0.7028955670462668  0.627758442580947  1.0000
  C   C19       1.0  0.03632392997082934  0.5823123098938399  0.9855085604028542  1.0000
  C   C20       1.0  0.9865058793602517  0.6844635857000227  0.050452588196383985  1.0000
  C   C21       1.0  0.9315506972517814  0.7750731888499349  0.9681029003092929  1.0000
  C   C22       1.0  0.9244591750215878  0.7645421497918468  0.8191501390807461  1.0000
  C   C23       1.0  0.9756160598425787  0.6664312048420051  0.7522004636204032  1.0000
  C   C24       1.0  0.03245042780057794  0.5758695980061803  0.8331097669487195  1.0000
  C   C25       1.0  0.8666793318814741  0.8642701308338441  0.7302825511914959  1.0000
  H   H12       1.0  0.13164446334230995  0.2670902603038485  0.1146224784972083  1.0000
  H   H13       1.0  0.988711106465909  0.692178679655528  0.16626580036445282  1.0000
  H   H14       1.0  0.8937839860989202  0.8525414240305771  0.0210258564207515  1.0000
  H   H15       1.0  0.9723881783135871  0.6631788491401653  0.6358022771606273  1.0000
  H   H16       1.0  0.0997292067335902  0.366597741872726  0.5697439328964813  1.0000
  H   H17       1.0  0.9018995825054937  0.9640182160922894  0.6911322054421984  1.0000
  H   H18       1.0  0.8112614635923726  0.8942696628026798  0.7956277634376483  1.0000
  H   H19       1.0  0.8425467639745073  0.8112387519133881  0.6356767736198434  1.0000
  Zn  Zn1       1.0  0.9415509577731758  0.5801307299276917  0.40899783908449616  1.0000
  Zn  Zn2       1.0  0.12721531211378578  0.5780505663240869  0.40961983378588407  1.0000
  C   C26       1.0  0.03314515070114288  0.5713419241673281  0.6729032253434934  1.0000
  C   C27       1.0  0.03562315725688103  0.5868411680188179  0.14571459336614812  1.0000
  C   C28       1.0  0.03604037264513238  0.8425422572943988  0.40318163131134077  1.0000
  C   C29       1.0  0.032727860876210046  0.3156391022632479  0.41543626660542143  1.0000
  O   O2        1.0  0.10584658744133102  0.5875653909886491  0.19971725427136144  1.0000
  O   O3        1.0  0.10383666464109864  0.5690378203065336  0.6193722301393285  1.0000
  O   O4        1.0  0.10617363630182552  0.7880355183381593  0.40157012930748714  1.0000
  O   O5        1.0  0.10350955298433484  0.3685677048063658  0.4175192466674822  1.0000
  O   O6        1.0  0.9652566535445392  0.7896135921568983  0.4010984259830479  1.0000
  O   O7        1.0  0.9629196929624059  0.5706176274652572  0.61890044738792  1.0000
  O   O8        1.0  0.9649296234371398  0.5891451610778105  0.1992437364674038  1.0000
  O   O9        1.0  0.9625925884183247  0.3701474637576705  0.41704583707939613  1.0000
