data_image0
_chemical_formula_structural       NC9NC3OH6C9H8C7F3H5Zn2C4O8
_chemical_formula_sum              "N2 C32 O9 H19 F3 Zn2"
_cell_length_a       15.78231758774541
_cell_length_b       9.275152443626249
_cell_length_c       9.272291681409872
_cell_angle_alpha    85.85885421009831
_cell_angle_beta     90.49794672891421
_cell_angle_gamma    90.20707041648352

_space_group_name_H-M_alt    "P 1"
_space_group_IT_number       1

loop_
  _space_group_symop_operation_xyz
  'x, y, z'

loop_
  _atom_site_type_symbol
  _atom_site_label
  _atom_site_symmetry_multiplicity
  _atom_site_fract_x
  _atom_site_fract_y
  _atom_site_fract_z
  _atom_site_occupancy
  N   N1        1.0  0.8003283205947989  0.5559299443912329  0.40708025715470253  1.0000
  C   C1        1.0  0.751374741066033  0.46501339742106795  0.4341243301887685  1.0000
  C   C2        1.0  0.6905971791246349  0.3521638667503124  0.4676929874155351  1.0000
  C   C3        1.0  0.7096021248919113  0.2104059039669366  0.5097724785843687  1.0000
  C   C4        1.0  0.6325531791328453  0.1417051658895947  0.5302486056180855  1.0000
  C   C5        1.0  0.5712594519048635  0.24662268104344354  0.4991507909410686  1.0000
  C   C6        1.0  0.4780788800393597  0.2272259221885744  0.5050021702428826  1.0000
  C   C7        1.0  0.4248849878678863  0.3461614824418302  0.46956569946897964  1.0000
  C   C8        1.0  0.3366050740139335  0.3302566743571764  0.47437163922393677  1.0000
  C   C9        1.0  0.2827306831305749  0.45265264679849926  0.4378949716820908  1.0000
  N   N2        1.0  0.23942848834843572  0.5510432049797263  0.40857100782344613  1.0000
  C   C10       1.0  0.3008369543315572  0.1952393067447744  0.514669047547557  1.0000
  C   C11       1.0  0.35310107427178816  0.07654968449533395  0.5500370911771226  1.0000
  C   C12       1.0  0.44119330266550083  0.09201754970714537  0.5453617663800567  1.0000
  O   O1        1.0  0.6082944829731053  0.37096263324945955  0.4621876500461781  1.0000
  H   H1        1.0  0.7718405104625508  0.16259954236891638  0.5239067449261505  1.0000
  H   H2        1.0  0.6232970481215673  0.028742094641079685  0.5637975489091835  1.0000
  H   H3        1.0  0.4519771424905991  0.45122888939310357  0.43820192908765354  1.0000
  H   H4        1.0  0.2326584636430588  0.1817687403160142  0.5187370725196345  1.0000
  H   H5        1.0  0.325281933193614  0.972200576956107  0.5811869127756315  1.0000
  H   H6        1.0  0.4798440970427859  0.9980070900331632  0.5733849057925027  1.0000
  C   C13       1.0  0.017389287729318248  0.12989486734980837  0.4092890022846416  1.0000
  C   C14       1.0  0.9863020835490098  0.2119089536241603  0.2867068563826092  1.0000
  C   C15       1.0  0.963080945519404  0.14563469610268753  0.16185834792496467  1.0000
  C   C16       1.0  0.9705802161043733  0.9961676328103879  0.15712033739999742  1.0000
  C   C17       1.0  6.164016048915144e-06  0.9124748340061889  0.278661757396083  1.0000
  C   C18       1.0  0.02237559973439396  0.9770672550696314  0.40637474005742913  1.0000
  C   C19       1.0  0.9470740010376709  0.9281495736325053  0.027833690747068873  1.0000
  C   C20       1.0  0.9273929964120169  0.871166925071812  0.9195764008760858  1.0000
  C   C21       1.0  0.9035139772598582  0.8020165544491485  0.7882251672598337  1.0000
  H   H7        1.0  0.14036379988824343  0.21269610327488886  0.697624018042251  1.0000
  H   H8        1.0  0.981836942291825  0.32847216536006796  0.286238217682905  1.0000
  H   H9        1.0  0.9400295631511622  0.211314310608679  0.06841048817018547  1.0000
  H   H10       1.0  0.0035563468217902905  0.7960901170962803  0.2746520953472358  1.0000
  H   H11       1.0  0.1024676751295206  0.6825989920679753  0.6035725680181732  1.0000
  H   H12       1.0  0.9190605821567673  0.6852395126874355  0.8017462107197679  1.0000
  H   H13       1.0  0.834468737738101  0.8151948897225995  0.7682544613553217  1.0000
  H   H14       1.0  0.9388973150754246  0.8531550821957838  0.6950283338888941  1.0000
  C   C22       1.0  0.018077262270845162  0.5497981949744846  0.9844778622290034  1.0000
  C   C23       1.0  0.07452586637692438  0.4583817364352163  0.0652029793073432  1.0000
  C   C24       1.0  0.13565456590957892  0.37983952155879885  0.9968828689445974  1.0000
  C   C25       1.0  0.14279764943205775  0.39233667918698933  0.8459712682172174  1.0000
  C   C26       1.0  0.08463268963887671  0.47899313298981716  0.7640866609790598  1.0000
  C   C27       1.0  0.021687605401764065  0.5571639322702189  0.8311858776151833  1.0000
  C   C28       1.0  0.2073311314190034  0.30425297711402766  0.7719072852042514  1.0000
  F   F1        1.0  0.2781311958820276  0.2791075730669559  0.8591510625259615  1.0000
  F   F2        1.0  0.23311565427109282  0.3761573669811178  0.6436726347594854  1.0000
  F   F3        1.0  0.1716494686372565  0.17319534784389434  0.7422818840365579  1.0000
  H   H15       1.0  0.9004789224382697  0.8426108492545716  0.06316073965814972  1.0000
  H   H16       1.0  0.07251965578519126  0.4497915633625811  0.1822726524482492  1.0000
  H   H17       1.0  0.17792871944137945  0.31011343291705273  0.06247933371827519  1.0000
  H   H18       1.0  0.0870709905002085  0.4828138661749828  0.6470938333100014  1.0000
  H   H19       1.0  0.8304899373061485  0.6974845304837942  0.7167163397522183  1.0000
  Zn  Zn1       1.0  0.9270431530691094  0.554515956279821  0.40751878727630375  1.0000
  Zn  Zn2       1.0  0.11271360833930677  0.552445522633892  0.4081443032757335  1.0000
  C   C29       1.0  0.02096946973810665  0.5500251632103919  0.6711597246991292  1.0000
  C   C30       1.0  0.018789330501675527  0.5569381143625853  0.14450350792199784  1.0000
  C   C31       1.0  0.021404217859696262  0.8168836850167331  0.40118070300195297  1.0000
  C   C32       1.0  0.018354509151050857  0.2900778608817456  0.4144826122284728  1.0000
  O   O2        1.0  0.0894892402105183  0.558542324737485  0.19844697817840418  1.0000
  O   O3        1.0  0.09118913128298045  0.5468484498032902  0.6176905953532039  1.0000
  O   O4        1.0  0.09153925243363936  0.7623401046809228  0.39968061682689027  1.0000
  O   O5        1.0  0.08913905530292965  0.34305067994478966  0.41645684836107755  1.0000
  O   O6        1.0  0.9506176427452494  0.7639107996769654  0.39920624196991383  1.0000
  O   O7        1.0  0.9502675314633878  0.5484208771818719  0.6172161376658827  1.0000
  O   O8        1.0  0.9485676327606575  0.5601146867706914  0.19797078736804563  1.0000
  O   O9        1.0  0.9482174482497613  0.3446230326011004  0.4159807656733132  1.0000
