data_image0
_chemical_formula_structural       NC9NC3OH6C6NCH9C8H10Zn2C4O8
_chemical_formula_sum              "N3 C31 O9 H25 Zn2"
_cell_length_a       15.78231758774541
_cell_length_b       9.273386996610926
_cell_length_c       9.275657083861812
_cell_angle_alpha    85.7544876649096
_cell_angle_beta     89.58874472212382
_cell_angle_gamma    89.03191128213776

_space_group_name_H-M_alt    "P 1"
_space_group_IT_number       1

loop_
  _space_group_symop_operation_xyz
  'x, y, z'

loop_
  _atom_site_type_symbol
  _atom_site_label
  _atom_site_symmetry_multiplicity
  _atom_site_fract_x
  _atom_site_fract_y
  _atom_site_fract_z
  _atom_site_occupancy
  N   N1        1.0  0.7963592910914379  0.5618190287183249  0.4100146152614157  1.0000
  C   C1        1.0  0.7482510242041984  0.4707899308692136  0.43689527040007103  1.0000
  C   C2        1.0  0.6885226970690899  0.35780069583649676  0.47026108625490814  1.0000
  C   C3        1.0  0.7088464789315866  0.21586755083511777  0.5120857853601193  1.0000
  C   C4        1.0  0.6324359153401444  0.1470816225277367  0.5324384213731752  1.0000
  C   C5        1.0  0.5701656679851597  0.2521286319558189  0.5015291771042647  1.0000
  C   C6        1.0  0.4771646828134418  0.23270757453738966  0.5073456817721318  1.0000
  C   C7        1.0  0.4228655036579937  0.3517905749006278  0.47212299869965046  1.0000
  C   C8        1.0  0.3347327719145433  0.33586581471497823  0.4769003412444168  1.0000
  C   C9        1.0  0.2797210211441336  0.45841354919863564  0.4406436826428628  1.0000
  N   N2        1.0  0.23550454917887353  0.556926109491602  0.41149657773939796  1.0000
  C   C10       1.0  0.3002187452023767  0.20068082754183325  0.5169550462232368  1.0000
  C   C11       1.0  0.3535858215403168  0.08184405305775622  0.5521097436363993  1.0000
  C   C12       1.0  0.4415349244157146  0.09733132720313487  0.5474622305886376  1.0000
  O   O1        1.0  0.6060444120867006  0.37662243091084924  0.46478952817512575  1.0000
  H   H1        1.0  0.7715301536147872  0.16800230935863958  0.5261341326883604  1.0000
  H   H2        1.0  0.6242305716502029  0.03397889392497233  0.5657843257240605  1.0000
  H   H3        1.0  0.44898180081848377  0.4569884379627043  0.4409480951135465  1.0000
  H   H4        1.0  0.23216493224755114  0.18719337097907607  0.5209988510952852  1.0000
  H   H5        1.0  0.3267358620389852  0.9773653796252436  0.583071989581043  1.0000
  H   H6        1.0  0.48105925190258503  0.0032042804969922845  0.5753163837979307  1.0000
  C   C13       1.0  0.018538067705308414  0.13569319328103147  0.4114727512249816  1.0000
  C   C14       1.0  0.03408536277011476  0.21832594905077585  0.28118508332001935  1.0000
  C   C15       1.0  0.04165426211361112  0.1530690690787122  0.15086243436528313  1.0000
  C   C16       1.0  0.033797344926968176  0.0028387822347910596  0.147495162816615  1.0000
  C   C17       1.0  0.019745657602610933  0.9192241221153366  0.2773351053938127  1.0000
  C   C18       1.0  0.013333843961617964  0.9830408203811529  0.41005096287312526  1.0000
  N   N3        1.0  0.04066372368519877  0.9325394792259771  0.014478975791285098  1.0000
  C   C19       1.0  0.055501542512456536  0.009547958402220225  0.8738571418754248  1.0000
  H   H7        1.0  0.03463576317471362  0.39887442006649776  0.6481935629081494  1.0000
  H   H8        1.0  0.03841642363914555  0.33491450038890136  0.2794311415133146  1.0000
  H   H9        1.0  0.05284274491069341  0.2210434769581422  0.05298222021136434  1.0000
  H   H10       1.0  0.015757702295122966  0.8028558027664147  0.2750475577856437  1.0000
  H   H11       1.0  0.042731999657359854  0.8531551021054999  0.7612539781318444  1.0000
  H   H12       1.0  0.034657625068321485  0.8202546329540612  0.01744795540657318  1.0000
  H   H13       1.0  0.0030994310380456636  0.0885767032148852  0.8486340251235003  1.0000
  H   H14       1.0  0.11683284138247374  0.06641755650524273  0.8742967263693182  1.0000
  H   H15       1.0  0.05807550137716855  0.9316442533095499  0.7885255848893036  1.0000
  C   C20       1.0  0.018107769210000235  0.5571680295520336  0.9874528967678007  1.0000
  C   C21       1.0  0.061326742297514336  0.666660314809872  0.05235685738492779  1.0000
  C   C22       1.0  0.0970255859345508  0.7824110191788582  0.9685462406434553  1.0000
  C   C23       1.0  0.09076912659117409  0.7876711205235138  0.817877638700089  1.0000
  C   C24       1.0  0.04937638160753033  0.6788044068570087  0.7515261665166602  1.0000
  C   C25       1.0  0.013764156196004462  0.5615659856951369  0.8340708165065305  1.0000
  C   C26       1.0  0.14412709093541998  0.8975751779283418  0.0397133492634647  1.0000
  C   C27       1.0  0.2374556280273168  0.8553686077697575  0.05794113775086318  1.0000
  H   H16       1.0  0.9814854518265481  0.32742695733652094  0.2855378046463215  1.0000
  H   H17       1.0  0.06572441730387424  0.6639366581768986  0.16910115658030755  1.0000
  H   H18       1.0  0.11879469919662777  0.8755339601392933  0.7514398441766121  1.0000
  H   H19       1.0  0.047161266965902726  0.6844512413942319  0.6345350531223595  1.0000
  H   H20       1.0  0.914736050058446  0.3964010021212405  0.5661778085699711  1.0000
  H   H21       1.0  0.13884316881968406  0.0023672334901401193  0.9736816284205063  1.0000
  H   H22       1.0  0.11584301880988157  0.9142292415106588  0.14746731694873527  1.0000
  H   H23       1.0  0.24411831387628413  0.7526650555429455  0.12688190111901743  1.0000
  H   H24       1.0  0.26735708921347423  0.8417579118155605  0.9508892359749561  1.0000
  H   H25       1.0  0.27100032740880553  0.9415964475976257  0.11047741563444102  1.0000
  Zn  Zn1       1.0  0.9230871038665359  0.560403227292261  0.41045060162755354  1.0000
  Zn  Zn2       1.0  0.10877671977551895  0.5583301967175454  0.41107239495251036  1.0000
  C   C28       1.0  0.014618604392539147  0.5549870462697706  0.6740515165770924  1.0000
  C   C29       1.0  0.017247235067910482  0.5637481762515733  0.1474716252225854  1.0000
  C   C30       1.0  0.014342677124763448  0.8228443042361404  0.4045753758202637  1.0000
  C   C31       1.0  0.017523109224679034  0.2958891859836015  0.4169478455287954  1.0000
  O   O2        1.0  0.0874267121148411  0.5651635349755582  0.20141135016909217  1.0000
  O   O3        1.0  0.08537325806904272  0.5519972147341552  0.6205833052444729  1.0000
  O   O4        1.0  0.08514948567504033  0.7682953564508603  0.4029794092967054  1.0000
  O   O5        1.0  0.08765042163669223  0.3488654037256851  0.4190151378041782  1.0000
  O   O6        1.0  0.9442133386386391  0.7698680209930762  0.40250785855611326  1.0000
  O   O7        1.0  0.9444371007769244  0.5535716122869276  0.6201116747347264  1.0000
  O   O8        1.0  0.9464905640796714  0.5667378732477861  0.2009379866323271  1.0000
  O   O9        1.0  0.9467142731069501  0.35043973224003566  0.4185418823603224  1.0000
