data_image0
_chemical_formula_structural       NC9NC3OH6C6SCH8C7OH6Zn2C4O8
_chemical_formula_sum              "N2 C30 O10 H20 S1 Zn2"
_cell_length_a       15.78231758774541
_cell_length_b       10.302809429070853
_cell_length_c       9.274081674992354
_cell_angle_alpha    86.07103033797786
_cell_angle_beta     89.75780300142802
_cell_angle_gamma    89.63144148246117

_space_group_name_H-M_alt    "P 1"
_space_group_IT_number       1

loop_
  _space_group_symop_operation_xyz
  'x, y, z'

loop_
  _atom_site_type_symbol
  _atom_site_label
  _atom_site_symmetry_multiplicity
  _atom_site_fract_x
  _atom_site_fract_y
  _atom_site_fract_z
  _atom_site_occupancy
  N   N1        1.0  0.8032203911606213  0.4000275857987847  0.4128140681940704  1.0000
  C   C1        1.0  0.7545990363695334  0.31820471472926726  0.43953897428517363  1.0000
  C   C2        1.0  0.6942338431099874  0.21664264602532746  0.4727114676733337  1.0000
  C   C3        1.0  0.7137574640236192  0.08906360963078419  0.5142933317721723  1.0000
  C   C4        1.0  0.6369592561297213  0.02723448249340943  0.5345282718307105  1.0000
  C   C5        1.0  0.5752812997525929  0.12165794065378832  0.5037987484943138  1.0000
  C   C6        1.0  0.4821709875345133  0.1042013087450766  0.5095820149172097  1.0000
  C   C7        1.0  0.42854292342221717  0.2112406548010568  0.474563087095627  1.0000
  C   C8        1.0  0.34032056005074973  0.19692669932001183  0.47931317424992237  1.0000
  C   C9        1.0  0.2859994347229086  0.3070803367745787  0.4432662002157626  1.0000
  N   N2        1.0  0.24233813400615692  0.39562963799768647  0.41428765480009866  1.0000
  C   C10       1.0  0.305044791759243  0.07541410294166995  0.5191365650917523  1.0000
  C   C11       1.0  0.35774214904091484  0.9685960967715582  0.55408792800939  1.0000
  C   C12       1.0  0.44577841874565194  0.9825168135369415  0.5494669217496015  1.0000
  O   O1        1.0  0.6118617960762168  0.23356113899567776  0.46727210347994985  1.0000
  H   H1        1.0  0.7761711968169949  0.04603892602868287  0.5282597922935706  1.0000
  H   H2        1.0  0.6281163146837927  0.9255702167884964  0.5676806655505131  1.0000
  H   H3        1.0  0.4552519814148893  0.30579895842260374  0.44356818746841475  1.0000
  H   H4        1.0  0.23691506134449483  0.0632909074730188  0.5231572863094187  1.0000
  H   H5        1.0  0.33030348195205406  0.8746842465831944  0.584871400546733  1.0000
  H   H6        1.0  0.48477229762375273  0.8979095041006452  0.5771600187667676  1.0000
  C   C13       1.0  0.02278330321120081  0.01657521174337684  0.4135571277412562  1.0000
  C   C14       1.0  0.0720912298132319  0.022725657563360535  0.2868952168222032  1.0000
  C   C15       1.0  0.09639326403387183  0.908807901769146  0.22370822521418599  1.0000
  C   C16       1.0  0.07209112323688083  0.7875745000873177  0.28689513900205776  1.0000
  C   C17       1.0  0.022783269464415445  0.7790720733896038  0.4135571200612682  1.0000
  C   C18       1.0  0.9983484231709164  0.8941981907122483  0.4762417079904375  1.0000
  S   S1        1.0  0.1595471727473552  0.9181564115074513  0.06204784831640464  1.0000
  C   C19       1.0  0.0681291221227851  0.9264135073172035  0.9427895175540977  1.0000
  H   H7        1.0  0.004173769705508201  0.34157275320943037  0.46125878853047864  1.0000
  H   H8        1.0  0.09167581931666446  0.11573542466224107  0.23658314261279867  1.0000
  H   H9        1.0  0.09167563271639656  0.7003850321399757  0.23658302966617173  1.0000
  H   H10       1.0  0.9603012505518171  0.8885480686471441  0.5739268229861916  1.0000
  H   H11       1.0  0.004172391025707656  0.4485569862947584  0.4612571989209029  1.0000
  H   H12       1.0  0.029180930833241137  0.8375029644535016  0.9618789179571827  1.0000
  H   H13       1.0  0.02918172611173886  0.013737913941241464  0.9618783966692783  1.0000
  H   H14       1.0  0.09039233855886164  0.9332159170634414  0.8289362247240128  1.0000
  C   C20       1.0  0.024213250632423522  0.39440595148791546  0.9902921680755674  1.0000
  C   C21       1.0  0.09302766121979156  0.4502197229122551  0.05904916340039046  1.0000
  C   C22       1.0  0.15704376166577783  0.5156594184051941  0.9787810269835404  1.0000
  C   C23       1.0  0.15222826464008787  0.5256376015777222  0.8276421649481125  1.0000
  C   C24       1.0  0.08518939249977242  0.46906578472673943  0.7576883006453681  1.0000
  C   C25       1.0  0.021353321782437762  0.4012413090804421  0.8368219845907205  1.0000
  C   C26       1.0  0.22783384838173992  0.574037878509168  0.0544635021086175  1.0000
  O   O2        1.0  0.2861456863491585  0.6339415634438785  0.9853194503076974  1.0000
  H   H15       1.0  0.823455843454759  0.31207971074809837  0.10098727582214617  1.0000
  H   H16       1.0  0.09582735705321599  0.44537245072739173  0.17609789579700608  1.0000
  H   H17       1.0  0.2007425656990136  0.5761420925900209  0.763197099099143  1.0000
  H   H18       1.0  0.08440347496756129  0.4757816043032914  0.6406119035607207  1.0000
  H   H19       1.0  0.8875280303731491  0.3404657808807423  0.5612885544414694  1.0000
  H   H20       1.0  0.230304015827971  0.5657594433810664  0.17137898117362882  1.0000
  Zn  Zn1       1.0  0.9299402545383672  0.3987550322917186  0.4132476301333008  1.0000
  Zn  Zn2       1.0  0.1156182023297565  0.39689169038391436  0.4138658754569573  1.0000
  C   C27       1.0  0.02189201431031562  0.3947771959280364  0.6768097513593878  1.0000
  C   C28       1.0  0.023668469677197157  0.40087114566557935  0.15030390245148428  1.0000
  C   C29       1.0  0.022798314939166398  0.6348975901188547  0.40781336431739246  1.0000
  C   C30       1.0  0.022762105429906088  0.16074919290105205  0.4193003661276109  1.0000
  O   O3        1.0  0.09394944973035169  0.4023281313232627  0.20423992311204797  1.0000
  O   O4        1.0  0.09253630173737637  0.3919049941010757  0.6233425496787242  1.0000
  O   O5        1.0  0.09326719600766054  0.585805270781047  0.40612606078529256  1.0000
  O   O6        1.0  0.09321849246587344  0.20842786369389654  0.42145630372256426  1.0000
  O   O7        1.0  0.9523399010395048  0.5872188596189556  0.40565720164913555  1.0000
  O   O8        1.0  0.951609007024916  0.3933201421499115  0.6228736136898774  1.0000
  O   O9        1.0  0.9530221609288181  0.4037432201365909  0.20376925419203396  1.0000
  O   O10       1.0  0.9522912032957888  0.20984294409383897  0.42098574286690726  1.0000
