data_image0
_chemical_formula_structural       NC9NC3OH6C7NH5C6FH5Zn2C4O8
_chemical_formula_sum              "N3 C29 O9 H16 F1 Zn2"
_cell_length_a       15.78231758774541
_cell_length_b       10.302819778424748
_cell_length_c       9.275646106892307
_cell_angle_alpha    84.95237356290208
_cell_angle_beta     90.10253560025426
_cell_angle_gamma    89.6314472413266

_space_group_name_H-M_alt    "P 1"
_space_group_IT_number       1

loop_
  _space_group_symop_operation_xyz
  'x, y, z'

loop_
  _atom_site_type_symbol
  _atom_site_label
  _atom_site_symmetry_multiplicity
  _atom_site_fract_x
  _atom_site_fract_y
  _atom_site_fract_z
  _atom_site_occupancy
  N   N1        1.0  0.7974885144865896  0.42808349120574585  0.4106549454139552  1.0000
  C   C1        1.0  0.7489636687287923  0.3457882763655866  0.43741619773218443  1.0000
  C   C2        1.0  0.6887182680425079  0.24363990735482477  0.47063380615198436  1.0000
  C   C3        1.0  0.7083920494476155  0.11532594126221896  0.5122722220969735  1.0000
  C   C4        1.0  0.6316669140170793  0.05313917577753946  0.5325346819615577  1.0000
  C   C5        1.0  0.569877987147376  0.14810575613397692  0.50176336611735  1.0000
  C   C6        1.0  0.47678855948879073  0.13054690883668862  0.5075544978975597  1.0000
  C   C7        1.0  0.4230340349440067  0.23820518979815342  0.47248794384210235  1.0000
  C   C8        1.0  0.33482882511167783  0.22380727966064784  0.4772444912130418  1.0000
  C   C9        1.0  0.280377526866661  0.3345980220425757  0.4411484927834255  1.0000
  N   N2        1.0  0.2366115787584507  0.42365949869031594  0.41213053613471295  1.0000
  C   C10       1.0  0.2996968671545045  0.10159083265816515  0.51712204245839  1.0000
  C   C11       1.0  0.3525204408791036  0.9941550857296234  0.5521209397229492  1.0000
  C   C12       1.0  0.44054002318201096  0.008157475736159991  0.5474936487985467  1.0000
  O   O1        1.0  0.6063265783835352  0.26065453696195817  0.46518704439157843  1.0000
  H   H1        1.0  0.7708562179332412  0.07205441063936058  0.5262576771497676  1.0000
  H   H2        1.0  0.6229436925496726  0.9508889651797588  0.5657321633521541  1.0000
  H   H3        1.0  0.4496311640721141  0.33331130664293696  0.4414508906882084  1.0000
  H   H4        1.0  0.2315816563884082  0.08939657360200637  0.5211482319388734  1.0000
  H   H5        1.0  0.32519293914882896  0.8996991591428438  0.5829462782431918  1.0000
  H   H6        1.0  0.479633907438212  0.9230607102579762  0.5752244088228458  1.0000
  C   C13       1.0  0.017054084783346912  0.044618371861545825  0.41139895726158904  1.0000
  C   C14       1.0  0.9676255967161793  0.03400559723532859  0.537622252860533  1.0000
  C   C15       1.0  0.9430344368464858  0.9116230617351737  0.6004195361277476  1.0000
  C   C16       1.0  0.9676256651031382  0.7987045866903463  0.5376222578203096  1.0000
  C   C17       1.0  0.017054098759883285  0.8071143984917307  0.4113990002070145  1.0000
  C   C18       1.0  0.041510105697198485  0.930572391488693  0.3489468620410141  1.0000
  C   C19       1.0  0.8923630724711952  0.9018725193923348  0.7298169625167736  1.0000
  N   N3        1.0  0.8516398763219346  0.8940363051841125  0.8338100482678505  1.0000
  H   H7        1.0  0.03577638993380505  0.37596066928926786  0.36358802686982905  1.0000
  H   H8        1.0  0.9481315519890847  0.12067871163723365  0.587403080994384  1.0000
  H   H9        1.0  0.948131657732538  0.704529106776301  0.58740304706145  1.0000
  H   H10       1.0  0.07962760909428068  0.9379071432996194  0.25160800133053973  1.0000
  H   H11       1.0  0.035776467691297276  0.48297758686724795  0.3635881368283005  1.0000
  C   C20       1.0  0.016955476518105472  0.429930953654168  0.9875582112863159  1.0000
  C   C21       1.0  0.09453834925518634  0.4427185015661337  0.05987976524152905  1.0000
  C   C22       1.0  0.17107094543509604  0.4433261185203703  0.9846911186595033  1.0000
  C   C23       1.0  0.1713647525270623  0.43102655171059734  0.8363158504506916  1.0000
  C   C24       1.0  0.09510964713055792  0.4203903526864088  0.762066799307318  1.0000
  C   C25       1.0  0.017152671423072974  0.42180188206781066  0.8352397562539533  1.0000
  F   F1        1.0  0.24527319251679391  0.4542999707398647  0.05637567369278007  1.0000
  H   H12       1.0  0.8204781095743333  0.32643325047682104  0.10005089104186493  1.0000
  H   H13       1.0  0.09604266110335136  0.449159944523827  0.1758120725158816  1.0000
  H   H14       1.0  0.23078280727069145  0.4309710755854719  0.7782001494392645  1.0000
  H   H15       1.0  0.09704185435912738  0.4141652674204448  0.6461403658153038  1.0000
  H   H16       1.0  0.884137316711044  0.35746904286334935  0.559947028395551  1.0000
  Zn  Zn1       1.0  0.9242099435476726  0.4268032747429251  0.4110890970115677  1.0000
  Zn  Zn2       1.0  0.10989012394973052  0.4249290057572499  0.4117081831615865  1.0000
  C   C26       1.0  0.017113532225653927  0.41816634788483587  0.675009788970504  1.0000
  C   C27       1.0  0.016988562926529838  0.4335675489115187  0.14778763962516273  1.0000
  C   C28       1.0  0.01704839416651871  0.6630416560697341  0.4056474740775633  1.0000
  C   C29       1.0  0.017053637643878572  0.18869068079980456  0.4171500312562564  1.0000
  O   O2        1.0  0.08746432780955127  0.4340710841686233  0.20179703945670147  1.0000
  O   O3        1.0  0.08756472782419378  0.416239310394815  0.6214698457219838  1.0000
  O   O4        1.0  0.0875111784695064  0.6139792138213409  0.40395786749581775  1.0000
  O   O5        1.0  0.08751781377899226  0.23633119170685513  0.419308909252637  1.0000
  O   O6        1.0  0.9465821903548769  0.615401089434402  0.4034883707016621  1.0000
  O   O7        1.0  0.9466357396878161  0.41766274657577385  0.6210002719708199  1.0000
  O   O8        1.0  0.9465353393257829  0.4354944917478625  0.20132573041674084  1.0000
  O   O9        1.0  0.9465888253169356  0.23775458896241863  0.41883770842405155  1.0000
