data_image0
_chemical_formula_structural       NC9NC3OH6C7NH5C6NCOH7Zn2C4O8
_chemical_formula_sum              "N4 C30 O10 H18 Zn2"
_cell_length_a       15.78231758774541
_cell_length_b       10.302819778424748
_cell_length_c       10.29962270195845
_cell_angle_alpha    85.57967011420672
_cell_angle_beta     90.10253899755935
_cell_angle_gamma    89.6314472413266

_space_group_name_H-M_alt    "P 1"
_space_group_IT_number       1

loop_
  _space_group_symop_operation_xyz
  'x, y, z'

loop_
  _atom_site_type_symbol
  _atom_site_label
  _atom_site_symmetry_multiplicity
  _atom_site_fract_x
  _atom_site_fract_y
  _atom_site_fract_z
  _atom_site_occupancy
  N   N1        1.0  0.7975559555143027  0.4123704415445324  0.5699631929060398  1.0000
  C   C1        1.0  0.749029974190409  0.3303398016533179  0.59404202695694  1.0000
  C   C2        1.0  0.6887831639740523  0.22851983831457856  0.623930063256471  1.0000
  C   C3        1.0  0.7084551785271126  0.10061753015343955  0.6613948461358135  1.0000
  C   C4        1.0  0.6317291832951674  0.03863108934790471  0.6796262952003254  1.0000
  C   C5        1.0  0.5699415621514666  0.13329344928813636  0.6519393469615165  1.0000
  C   C6        1.0  0.4768518887565146  0.11579185597795072  0.6571500037515794  1.0000
  C   C7        1.0  0.4230988521985192  0.22310345167825663  0.6255983511682985  1.0000
  C   C8        1.0  0.33489344053057146  0.20875256711574441  0.629878125277453  1.0000
  C   C9        1.0  0.2804436739549823  0.319186446641329  0.5974002148361603  1.0000
  N   N2        1.0  0.2366789571720987  0.40796103744727374  0.57129087756256  1.0000
  C   C10       1.0  0.299759790440509  0.0869303692672001  0.6657585440028104  1.0000
  C   C11       1.0  0.35258187904921495  0.979840638711389  0.697249321384098  1.0000
  C   C12       1.0  0.4406016577029741  0.9937972810359594  0.6930858476815605  1.0000
  O   O1        1.0  0.6063917054387172  0.2454806185465952  0.6190292585039874  1.0000
  H   H1        1.0  0.7709187535648527  0.05748426664202122  0.67397846693719  1.0000
  H   H2        1.0  0.6230045531517427  0.936709085436402  0.7094962219065397  1.0000
  H   H3        1.0  0.44969729832871863  0.31790272089663096  0.597672301840162  1.0000
  H   H4        1.0  0.2316444088302304  0.07477591510744785  0.6693811677576784  1.0000
  H   H5        1.0  0.32525306930058173  0.8856894666356546  0.7249848773276499  1.0000
  H   H6        1.0  0.47969436525374565  0.9089746755384215  0.7180370106835847  1.0000
  C   C13       1.0  0.017121494240242008  0.028912677868679237  0.5706326286109926  1.0000
  C   C14       1.0  0.9676876501122541  0.019547809042669062  0.6842039126429575  1.0000
  C   C15       1.0  0.9430938255516497  0.8977861184796909  0.7407067005042207  1.0000
  C   C16       1.0  0.9676877184990024  0.7842467985467213  0.6842039171055905  1.0000
  C   C17       1.0  0.017121508214955616  0.7914087049234438  0.570632667251777  1.0000
  C   C18       1.0  0.04158016519756447  0.9142492652580526  0.514440428819098  1.0000
  C   C19       1.0  0.8924169704269501  0.8893148629607027  0.8571339558353386  1.0000
  N   N3        1.0  0.8516893615162456  0.8825067757259872  0.9507032785435856  1.0000
  H   H7        1.0  0.03584582816240833  0.3597822928405512  0.5276140342256275  1.0000
  H   H8        1.0  0.9481914930243477  0.1067130812817827  0.7289949517654013  1.0000
  H   H9        1.0  0.948191598769241  0.6905634760853724  0.7289949212337403  1.0000
  H   H10       1.0  0.07970179899589791  0.9206216770485433  0.42685834387479016  1.0000
  H   H11       1.0  0.03584590591523429  0.4667992115056352  0.527614133162394  1.0000
  C   C20       1.0  0.017040870902447436  0.4100349608519025  0.18927562539644116  1.0000
  C   C21       1.0  0.928256823257617  0.42094203789761386  0.18691365350408673  1.0000
  C   C22       1.0  0.8836832928668894  0.4285612995419692  0.06876162580476874  1.0000
  C   C23       1.0  0.9284441762095593  0.42121842595551096  0.9517420274463952  1.0000
  C   C24       1.0  0.017202127409944534  0.41028646447772066  0.9519896388243998  1.0000
  C   C25       1.0  0.06101947322846746  0.40527755763415785  0.07125869636698323  1.0000
  N   N4        1.0  0.7927206250330523  0.4377078246342163  0.07036924068407524  1.0000
  C   C26       1.0  0.7430116167354919  0.5090688954453153  0.9721454302066821  1.0000
  O   O2        1.0  0.7771442157014963  0.5837731448062469  0.8851386833341803  1.0000
  H   H12       1.0  0.18444960910183927  0.3880717887680656  0.40108983714531354  1.0000
  H   H13       1.0  0.8932710602661761  0.42467168690656965  0.2769635377200108  1.0000
  H   H14       1.0  0.8940542853805888  0.42131867346673335  0.8607858246573064  1.0000
  H   H15       1.0  0.1294632652599086  0.3968861899241112  0.07220211050557634  1.0000
  H   H16       1.0  0.05118658837833956  0.40412212921505386  0.624789657359714  1.0000
  H   H17       1.0  0.7605469663003812  0.39766383330485144  0.15236927762054897  1.0000
  H   H18       1.0  0.674678525068255  0.5016577750740052  0.9748336619714619  1.0000
  Zn  Zn1       1.0  0.9242773661529357  0.4110945173186893  0.5703538272510822  1.0000
  Zn  Zn2       1.0  0.10995752028517525  0.40922636892425457  0.5709108592050525  1.0000
  C   C27       1.0  0.01716975582623892  0.40506684068439935  0.8078203878107002  1.0000
  C   C28       1.0  0.017067158260353654  0.41525566332210295  0.3334444321907932  1.0000
  C   C29       1.0  0.017116047677362634  0.6472791000753562  0.5654576462339396  1.0000
  C   C30       1.0  0.01712080306418784  0.17304184476300177  0.5758072428138459  1.0000
  O   O3        1.0  0.08754063135065171  0.4162931621633117  0.38204019147245005  1.0000
  O   O4        1.0  0.08762322329694805  0.4026104808897626  0.759647029058816  1.0000
  O   O5        1.0  0.08757890367579746  0.5981999535423579  0.5639373976293764  1.0000
  O   O6        1.0  0.08758488759115712  0.22070369940347967  0.5777497253401804  1.0000
  O   O7        1.0  0.9466499354834282  0.5996171874783829  0.5635149609190357  1.0000
  O   O8        1.0  0.9466942550860966  0.40402927463285065  0.759224523105265  1.0000
  O   O9        1.0  0.9466116628660434  0.4177119101487583  0.3816161241670435  1.0000
  O   O10       1.0  0.9466559191236689  0.2221224381350817  0.5773257553995648  1.0000
