data_image0
_chemical_formula_structural       NC9NC3OH6C6ClH5C6NCH9Zn2C4O8
_chemical_formula_sum              "N3 C29 O9 H20 Cl1 Zn2"
_cell_length_a       15.78231758774541
_cell_length_b       10.30297070629231
_cell_length_c       9.273390368590327
_cell_angle_alpha    86.16779528597043
_cell_angle_beta     90.0787864382203
_cell_angle_gamma    89.63144908567993

_space_group_name_H-M_alt    "P 1"
_space_group_IT_number       1

loop_
  _space_group_symop_operation_xyz
  'x, y, z'

loop_
  _atom_site_type_symbol
  _atom_site_label
  _atom_site_symmetry_multiplicity
  _atom_site_fract_x
  _atom_site_fract_y
  _atom_site_fract_z
  _atom_site_occupancy
  N   N1        1.0  0.7980055996129548  0.397638401598972  0.41288656835056337  1.0000
  C   C1        1.0  0.7494720459992834  0.3158566716858966  0.43961024677735927  1.0000
  C   C2        1.0  0.689215836620547  0.21434566973728209  0.4727812163179814  1.0000
  C   C3        1.0  0.7088760692772026  0.086830649978765  0.5143611702352269  1.0000
  C   C4        1.0  0.6321443406383713  0.025032671205301726  0.5345951807742535  1.0000
  C   C5        1.0  0.5703654264680365  0.11940881805493997  0.5038670691029317  1.0000
  C   C6        1.0  0.47727411443572904  0.10196108517480829  0.5096500698890691  1.0000
  C   C7        1.0  0.4235310002089552  0.20894652477134823  0.4746327507139667  1.0000
  C   C8        1.0  0.3353242426463568  0.19463987813268901  0.4793826196903064  1.0000
  C   C9        1.0  0.2808846896900185  0.30473802704202746  0.44333730152412865  1.0000
  N   N2        1.0  0.23712818374407582  0.39324272050264564  0.4143600872778088  1.0000
  C   C10       1.0  0.30017930892360345  0.073188580651536  0.5192041812106838  1.0000
  C   C11       1.0  0.3529914943453696  0.9664243767025857  0.5541539385872936  1.0000
  C   C12       1.0  0.44101258231977464  0.9803379833059829  0.5495331445760943  1.0000
  O   O1        1.0  0.6068259192913807  0.23125578503074906  0.46734210202458004  1.0000
  H   H1        1.0  0.7713356870238087  0.043827470917135125  0.528326989146801  1.0000
  H   H2        1.0  0.6234103170242208  0.9234194438779944  0.5677460515504074  1.0000
  H   H3        1.0  0.45013822849059704  0.30345711916657203  0.44363927486202437  1.0000
  H   H4        1.0  0.23206278807783093  0.06107157187930223  0.5232247177503173  1.0000
  H   H5        1.0  0.3256539623514617  0.8725599102766444  0.5849359970616081  1.0000
  H   H6        1.0  0.4800974432553279  0.8957733026729114  0.5772249694744258  1.0000
  C   C13       1.0  0.01757091981891512  0.014193141227446304  0.4136295485281809  1.0000
  C   C14       1.0  0.10506219911285664  0.010439868654765316  0.4416840917206648  1.0000
  C   C15       1.0  0.148473036728775  0.8916207501067243  0.4556039065173145  1.0000
  C   C16       1.0  0.10506219844269138  0.7753318993430771  0.4416840239342581  1.0000
  C   C17       1.0  0.017570928853930745  0.7766780837390257  0.4136296310645957  1.0000
  C   C18       1.0  0.9742517696911192  0.8966980937532076  0.39973908105611167  1.0000
  Cl  Cl1       1.0  0.25777048989947593  0.8884355344145128  0.49065061574472635  1.0000
  H   H7        1.0  0.9846144873386385  0.34291004387325996  0.4030610865413242  1.0000
  H   H8        1.0  0.13985960718756485  0.09947236426237538  0.4528419416155365  1.0000
  H   H9        1.0  0.13985957368876467  0.6842711707789187  0.45284183795161814  1.0000
  H   H10       1.0  0.9067758400257643  0.8986644039089315  0.37810252954610024  1.0000
  H   H11       1.0  0.9846144831812429  0.449882079842046  0.4030613586459004  1.0000
  C   C19       1.0  0.017610206024300412  0.39138667192884635  0.9903839234712315  1.0000
  C   C20       1.0  0.095432627975371  0.38802807761539726  0.064247549111204  1.0000
  C   C21       1.0  0.171897652002601  0.3967518209058287  0.9890893461523493  1.0000
  C   C22       1.0  0.17248304978420514  0.4091664261938157  0.8374633222545533  1.0000
  C   C23       1.0  0.09517708688101689  0.4103303893688415  0.7627918275835031  1.0000
  C   C24       1.0  0.017531680811460948  0.3994845404668572  0.8368751947302497  1.0000
  N   N3        1.0  0.25038018436435894  0.41937066787809885  0.7569364418134361  1.0000
  C   C25       1.0  0.3340398318337372  0.41868624091042483  0.824205366810979  1.0000
  H   H12       1.0  0.8838704846408412  0.33036243233287665  0.2757751417546823  1.0000
  H   H13       1.0  0.09719186308580863  0.3817436520956401  0.18130157398206737  1.0000
  H   H14       1.0  0.23027779129337667  0.39497279582145994  0.05040625015627653  1.0000
  H   H15       1.0  0.09580780433438973  0.4167212352641574  0.645666311468482  1.0000
  H   H16       1.0  0.8200654049239948  0.30059922895321645  0.7407214921983005  1.0000
  H   H17       1.0  0.24763093372993317  0.428002388094082  0.6440513833147969  1.0000
  H   H18       1.0  0.33953892290219145  0.5019136962768598  0.893692356542505  1.0000
  H   H19       1.0  0.344375390155669  0.32578027604352044  0.8897939848116869  1.0000
  H   H20       1.0  0.3836956916625238  0.4280039197995862  0.7394814248645272  1.0000
  Zn  Zn1       1.0  0.9247268874064064  0.39636651467136486  0.4133201103797335  1.0000
  Zn  Zn2       1.0  0.11040686636436448  0.39450412404739565  0.4139383273065049  1.0000
  C   C26       1.0  0.01754461565704335  0.3927818385126205  0.6768702196202434  1.0000
  C   C27       1.0  0.01759116572025632  0.39809041931983646  0.15038836628004604  1.0000
  C   C28       1.0  0.017567113282206837  0.632497269056463  0.4078861202474995  1.0000
  C   C29       1.0  0.017568604728308124  0.15837343034099338  0.4193725422832433  1.0000
  O   O2        1.0  0.08804935995528473  0.39962782671108776  0.20432192904693824  1.0000
  O   O3        1.0  0.08801322914731102  0.38982993635106444  0.6234054542994651  1.0000
  O   O4        1.0  0.08803044622879086  0.5834032019949087  0.40619888778619706  1.0000
  O   O5        1.0  0.08803207952383385  0.20605456995620575  0.4215283872822271  1.0000
  O   O6        1.0  0.9471016108834738  0.5848160693994386  0.4057300501854628  1.0000
  O   O7        1.0  0.9470843938053146  0.39124436282747843  0.6229365398497289  1.0000
  O   O8        1.0  0.9471205248304315  0.40104219136828756  0.20385128174500333  1.0000
  O   O9        1.0  0.9471032443854884  0.20746892636132674  0.421057848039724  1.0000
