data_image0
_chemical_formula_structural       NC9NC3OH6C6NCH9C7F3H5Zn2C4O8
_chemical_formula_sum              "N3 C30 O9 H20 F3 Zn2"
_cell_length_a       15.78231758774541
_cell_length_b       9.273386996610926
_cell_length_c       9.272291681409872
_cell_angle_alpha    85.970276704532
_cell_angle_beta     90.49794672891421
_cell_angle_gamma    89.03191128213776

_space_group_name_H-M_alt    "P 1"
_space_group_IT_number       1

loop_
  _space_group_symop_operation_xyz
  'x, y, z'

loop_
  _atom_site_type_symbol
  _atom_site_label
  _atom_site_symmetry_multiplicity
  _atom_site_fract_x
  _atom_site_fract_y
  _atom_site_fract_z
  _atom_site_occupancy
  N   N1        1.0  0.7815880086833933  0.5562427281601732  0.4098209209123693  1.0000
  C   C1        1.0  0.7337294684616802  0.4653079045186692  0.43670485069181586  1.0000
  C   C2        1.0  0.674311116432945  0.3524356880569155  0.47007473121922505  1.0000
  C   C3        1.0  0.6950234581199812  0.21064922811013131  0.5119045254705581  1.0000
  C   C4        1.0  0.618801974590018  0.14193467933658033  0.5322596408715514  1.0000
  C   C5        1.0  0.5562445741702959  0.24687328573295986  0.5013466311932195  1.0000
  C   C6        1.0  0.4632976254909265  0.22747262760784293  0.5071638444362065  1.0000
  C   C7        1.0  0.4086712205610615  0.34643209710774014  0.471936870484869  1.0000
  C   C8        1.0  0.3205828712858816  0.33052409172886676  0.4767147950125037  1.0000
  C   C9        1.0  0.2652342889014734  0.4529446690527561  0.4404537195716791  1.0000
  N   N2        1.0  0.22074703449881564  0.5513550063826052  0.41130306392519156  1.0000
  C   C10       1.0  0.2864409607986136  0.19547958199398918  0.5167743795141682  1.0000
  C   C11       1.0  0.3401346313105906  0.07676609993806127  0.5519333595240739  1.0000
  C   C12       1.0  0.4280405578597262  0.09223707460682173  0.5472852803094641  1.0000
  O   O1        1.0  0.5917819995810402  0.3712382336137625  0.46460250658622093  1.0000
  H   H1        1.0  0.7578376447611805  0.16283325614757382  0.5259545841890532  1.0000
  H   H2        1.0  0.6109064210245935  0.028948899472357015  0.5656096074693597  1.0000
  H   H3        1.0  0.4344978966285942  0.4515206254338271  0.44075816912633603  1.0000
  H   H4        1.0  0.2184247156002854  0.18200630761905678  0.5208186770084504  1.0000
  H   H5        1.0  0.3135723172701705  0.9723960154215229  0.5828993773348818  1.0000
  H   H6        1.0  0.46782365600401316  0.9982077163018299  0.57514282675251  1.0000
  C   C13       1.0  0.003780331672163406  0.1301220066091242  0.4112792345081946  1.0000
  C   C14       1.0  0.018117228229296733  0.2122978253515022  0.2809756947686446  1.0000
  C   C15       1.0  0.02447540408416704  0.14658388566864988  0.15063716971787766  1.0000
  C   C16       1.0  0.016587204270987144  0.9963417893336506  0.14726948796325612  1.0000
  C   C17       1.0  0.0037417559964105784  0.9131824960063775  0.27712524783248615  1.0000
  C   C18       1.0  0.9985628992301601  0.9774646472991466  0.4098572729519978  1.0000
  N   N3        1.0  0.022217836032892402  0.925575980000268  0.014237096711141373  1.0000
  C   C19       1.0  0.03574924988218875  0.0020912787872571226  0.8735981320374493  1.0000
  H   H7        1.0  0.022077210854070994  0.3941334463053412  0.6480288838674599  1.0000
  H   H8        1.0  0.02243199462794876  0.32888022537102457  0.2792215392941797  1.0000
  H   H9        1.0  0.03475456010422007  0.21421501398208087  0.05274503165286748  1.0000
  H   H10       1.0  0.9997325489138645  0.796806153908865  0.2748374215519167  1.0000
  H   H11       1.0  0.031223801219507852  0.8488106469932366  0.7611030722765812  1.0000
  H   H12       1.0  0.01623931983078597  0.8133015463540556  0.017206438011876157  1.0000
  H   H13       1.0  0.9831128106055665  0.08103156261067501  0.8483719425684892  1.0000
  H   H14       1.0  0.0970846325801229  0.05896241857442486  0.8740377700821704  1.0000
  H   H15       1.0  0.03753046150616579  0.9238883040198986  0.7882561798360377  1.0000
  C   C20       1.0  0.9994108038751757  0.5501097460968654  0.9872077253311144  1.0000
  C   C21       1.0  0.0569604684454732  0.4586749103905863  0.06777181859493386  1.0000
  C   C22       1.0  0.11903516532865277  0.38011690641641516  0.9993133615138583  1.0000
  C   C23       1.0  0.12602772752926672  0.3926165763094269  0.8484237736715108  1.0000
  C   C24       1.0  0.06681903888488927  0.4792904503902833  0.7666918058263796  1.0000
  C   C25       1.0  0.002932430791796392  0.5574769641039137  0.8339287149577665  1.0000
  C   C26       1.0  0.19162212878003215  0.3045151670431465  0.7742046372656923  1.0000
  F   F1        1.0  0.26272505566734417  0.27936470809352065  0.861404122684807  1.0000
  F   F2        1.0  0.21654060319673674  0.3764340116266245  0.6460966414662952  1.0000
  F   F3        1.0  0.1575189823445673  0.17343119166444976  0.7443483870832335  1.0000
  H   H16       1.0  0.8782856982697603  0.8429812635962957  0.06640637214452183  1.0000
  H   H17       1.0  0.05505772171683598  0.4500830104621123  0.18482636073582448  1.0000
  H   H18       1.0  0.16214913086755467  0.3103768009554171  0.06478700857019981  1.0000
  H   H19       1.0  0.06921132113729933  0.48311195164558574  0.6497057081164739  1.0000
  H   H20       1.0  0.8100446790342545  0.6978257705319577  0.7197063421933092  1.0000
  Zn  Zn1       1.0  0.908319871859081  0.554828455799119  0.4102569603910051  1.0000
  Zn  Zn2       1.0  0.09401526435248453  0.5527576059403378  0.4108788294637358  1.0000
  C   C27       1.0  0.0023002776361087385  0.550336759959493  0.6738899875902029  1.0000
  C   C28       1.0  3.687574297051022e-05  0.5572511008008065  0.14724594750184217  1.0000
  C   C29       1.0  0.9995208630938238  0.8172489275064574  0.4043810188550998  1.0000
  C   C30       1.0  0.002816237913278563  0.2903372012312311  0.41675499579601794  1.0000
  O   O2        1.0  0.07071746362893494  0.5588556336651407  0.20119224346466869  1.0000
  O   O3        1.0  0.0725582009294099  0.5471594079475515  0.6204152626817432  1.0000
  O   O4        1.0  0.07031284479571598  0.7626943824439314  0.4027848579085611  1.0000
  O   O5        1.0  0.07296275588423162  0.3433206692557256  0.41882253991197427  1.0000
  O   O6        1.0  0.9293723169585689  0.764265393191915  0.40231324972296667  1.0000
  O   O7        1.0  0.9316176620954749  0.5487321514263306  0.6199435747172768  1.0000
  O   O8        1.0  0.9297769179517803  0.5604283117854079  0.20071882226206417  1.0000
  O   O9        1.0  0.932022210716709  0.3448933379972121  0.4183492268154474  1.0000
