data_image0
_chemical_formula_structural       NC9NC3OH6C6NCH9C6NH7Zn2C4O8
_chemical_formula_sum              "N4 C29 O9 H22 Zn2"
_cell_length_a       15.78231758774541
_cell_length_b       9.273386996610926
_cell_length_c       9.274774538082514
_cell_angle_alpha    84.97283399596293
_cell_angle_beta     90.43038941912484
_cell_angle_gamma    89.03191128213776

_space_group_name_H-M_alt    "P 1"
_space_group_IT_number       1

loop_
  _space_group_symop_operation_xyz
  'x, y, z'

loop_
  _atom_site_type_symbol
  _atom_site_label
  _atom_site_symmetry_multiplicity
  _atom_site_fract_x
  _atom_site_fract_y
  _atom_site_fract_z
  _atom_site_occupancy
  N   N1        1.0  0.7824043259292834  0.5840031988562748  0.40806630980328107  1.0000
  C   C1        1.0  0.734531984862241  0.49259905037290097  0.4349799034378672  1.0000
  C   C2        1.0  0.6750965024301909  0.37914428091274854  0.46838660444911473  1.0000
  C   C3        1.0  0.695787370823503  0.23662757945240798  0.5102625538930605  1.0000
  C   C4        1.0  0.619555438010209  0.16755768228317236  0.5306401292245606  1.0000
  C   C5        1.0  0.5570139067609815  0.273035950979597  0.49969300998529254  1.0000
  C   C6        1.0  0.4640639718195264  0.25353373914905886  0.5055166419688573  1.0000
  C   C7        1.0  0.4094556506305023  0.3731081817617006  0.47025079840802286  1.0000
  C   C8        1.0  0.32136484861132486  0.35711676600749187  0.47503399492015563  1.0000
  C   C9        1.0  0.2660348808229869  0.4801703692184789  0.4387329088373644  1.0000
  N   N2        1.0  0.2215625908876942  0.5790896026421632  0.40955008821970695  1.0000
  C   C10       1.0  0.2872023735661891  0.22137291810606352  0.5151377813566309  1.0000
  C   C11       1.0  0.3408779952419644  0.10204564993817766  0.550335555951198  1.0000
  C   C12       1.0  0.4287863078791029  0.11759776821430101  0.5456823480240214  1.0000
  O   O1        1.0  0.5925701947407257  0.39804235755383854  0.46290834173759565  1.0000
  H   H1        1.0  0.7585943448775235  0.1885663293017128  0.5243281155127286  1.0000
  H   H2        1.0  0.6116427642642707  0.053989697066967546  0.5640268943330837  1.0000
  H   H3        1.0  0.43529833226115583  0.4787410106868766  0.4390376943230987  1.0000
  H   H4        1.0  0.2191840522307544  0.2078290406125558  0.5191865413478769  1.0000
  H   H5        1.0  0.3142997848193644  0.9971349777348075  0.5813357418123655  1.0000
  H   H6        1.0  0.4685551053726715  0.0230820882038687  0.5735706326154331  1.0000
  C   C13       1.0  0.0045959002938551485  0.15785701886952208  0.4095262325092186  1.0000
  C   C14       1.0  0.018999688076064336  0.2423076050542019  0.279078915228266  1.0000
  C   C15       1.0  0.0254247731156938  0.17886904356794964  0.1485965740331392  1.0000
  C   C16       1.0  0.01753830209943441  0.02868573836653532  0.14522517636255805  1.0000
  C   C17       1.0  0.0046261924672452714  0.9432594946913565  0.2752242196907657  1.0000
  C   C18       1.0  0.9993791978147578  0.005224483381358613  0.4081027019539225  1.0000
  N   N3        1.0  0.02323722594030664  0.9602423352624596  0.012045996541388826  1.0000
  C   C19       1.0  0.03684083669737115  0.03921283164882472  0.8712518501695907  1.0000
  H   H7        1.0  0.022771244219594422  0.4177354135585558  0.6465371125501733  1.0000
  H   H8        1.0  0.023315354969122293  0.358920628154034  0.2773228242103629  1.0000
  H   H9        1.0  0.03575418199191338  0.24820911892128983  0.0505964213204706  1.0000
  H   H10       1.0  0.00061815983861635  0.826923092205209  0.2729338690118688  1.0000
  H   H11       1.0  0.0318597880346283  0.87043862733196  0.759736067553034  1.0000
  H   H12       1.0  0.01725718542905552  0.8479160644909511  0.015018614227344518  1.0000
  H   H13       1.0  0.9842173472663244  0.1185935003966434  0.8459978260039809  1.0000
  H   H14       1.0  0.09817599370744268  0.09607629647710425  0.8716919733130073  1.0000
  H   H15       1.0  0.03866585854894811  0.9624997096876011  0.7858157312548983  1.0000
  C   C20       1.0  0.0004440692902565324  0.5852479652403  0.9849868008252738  1.0000
  C   C21       1.0  0.05996450925829788  0.6697188497823512  0.0517831392479724  1.0000
  C   C22       1.0  0.1233597765794947  0.7422622110430661  0.971110862301451  1.0000
  C   C23       1.0  0.12774965631523538  0.7306611523127802  0.8221674469106741  1.0000
  C   C24       1.0  0.068481518280195  0.6493655822770257  0.753664124888572  1.0000
  C   C25       1.0  0.0035310388866911513  0.5778335163383088  0.8326421023383288  1.0000
  N   N4        1.0  0.18385426493119716  0.8265214854344982  0.04091606984412888  1.0000
  H   H16       1.0  0.8755159600389587  0.30462199058256734  0.1109529922718433  1.0000
  H   H17       1.0  0.05839703445769451  0.6765787497038394  0.1677866192033819  1.0000
  H   H18       1.0  0.1767005901342551  0.7858538525933161  0.75870957253137  1.0000
  H   H19       1.0  0.07228491438245555  0.6453099703231031  0.6375105844058768  1.0000
  H   H20       1.0  0.9167580231366945  0.3932434909108793  0.5665750489462806  1.0000
  H   H21       1.0  0.1813378271952666  0.8355968011436508  0.15226247874071452  1.0000
  H   H22       1.0  0.23158908845726  0.8805932743724827  0.9817446538442223  1.0000
  Zn  Zn1       1.0  0.9091359652644297  0.5825813143581171  0.40850283040993784  1.0000
  Zn  Zn2       1.0  0.09483103852180785  0.5804996082515101  0.4091253856559416  1.0000
  C   C26       1.0  0.0029810352232977344  0.5734872583048942  0.6724267515369513  1.0000
  C   C27       1.0  0.0009879856558963063  0.5895954607901035  0.1452016099264879  1.0000
  C   C28       1.0  0.00033997290938359015  0.8451043650170749  0.4026204053323794  1.0000
  C   C29       1.0  0.003628995556992143  0.3179766206664132  0.41500803577791845  1.0000
  O   O2        1.0  0.07164088025100712  0.5902582289262168  0.19920743048716338  1.0000
  O   O3        1.0  0.07326640972680276  0.5712434385933869  0.6188930223643723  1.0000
  O   O4        1.0  0.07113277399930884  0.790577684853393  0.401022483174311  1.0000
  O   O5        1.0  0.07377445215571266  0.3709239946442693  0.4170778612318211  1.0000
  O   O6        1.0  0.9301924882618726  0.7921569286773795  0.40055035461401634  1.0000
  O   O7        1.0  0.9323261130335327  0.5728244165409044  0.6184208139371776  1.0000
  O   O8        1.0  0.930700577604274  0.5918391717731395  0.19873348690936687  1.0000
  O   O9        1.0  0.9328341499631156  0.37250492622515474  0.41660402587938683  1.0000
