data_image0
_chemical_formula_structural       NC9NC3OH6C6SCH8C6NCOH7Zn2C4O8
_chemical_formula_sum              "N3 C30 O10 H21 S1 Zn2"
_cell_length_a       15.78231758774541
_cell_length_b       10.302809429070853
_cell_length_c       10.29962270195845
_cell_angle_alpha    85.57966227248015
_cell_angle_beta     90.10253899755935
_cell_angle_gamma    89.63144148246117

_space_group_name_H-M_alt    "P 1"
_space_group_IT_number       1

loop_
  _space_group_symop_operation_xyz
  'x, y, z'

loop_
  _atom_site_type_symbol
  _atom_site_label
  _atom_site_symmetry_multiplicity
  _atom_site_fract_x
  _atom_site_fract_y
  _atom_site_fract_z
  _atom_site_occupancy
  N   N1        1.0  0.7975558625506919  0.41237187617966975  0.5699629986390591  1.0000
  C   C1        1.0  0.7490298866261356  0.33034115296467936  0.594041843973008  1.0000
  C   C2        1.0  0.6887830831116687  0.2285210862008804  0.6239298942775453  1.0000
  C   C3        1.0  0.7084551060833848  0.10061864812117327  0.6613946947494362  1.0000
  C   C4        1.0  0.631729114931448  0.038632144352039655  0.6796261523399822  1.0000
  C   C5        1.0  0.5699414875569776  0.13329460044689467  0.6519391910806722  1.0000
  C   C6        1.0  0.47685181531399795  0.11579298935921978  0.6571498502780229  1.0000
  C   C7        1.0  0.42309877169264787  0.22310469406278788  0.6255981829343797  1.0000
  C   C8        1.0  0.3348933609692892  0.20875379492316282  0.6298779590174515  1.0000
  C   C9        1.0  0.2804435871248338  0.3191877866235133  0.5974000333863363  1.0000
  N   N2        1.0  0.2366788644987193  0.40796246760349697  0.5712906839020788  1.0000
  C   C10       1.0  0.2997597188976838  0.08693147333200746  0.6657583944990579  1.0000
  C   C11       1.0  0.35258181455514104  0.9798416339982967  0.6972491866101911  1.0000
  C   C12       1.0  0.44060159229026025  0.9937982904995232  0.6930857109879627  1.0000
  O   O1        1.0  0.6063916234599588  0.2454818836610484  0.6190290871921613  1.0000
  H   H1        1.0  0.7709186839601987  0.05748534079653589  0.6739783214836534  1.0000
  H   H2        1.0  0.6230044914966298  0.9367100369118282  0.7094960930652385  1.0000
  H   H3        1.0  0.44969721158306625  0.317904059574853  0.5976721205669104  1.0000
  H   H4        1.0  0.2316443380874233  0.0747770068261977  0.6693810199257317  1.0000
  H   H5        1.0  0.32525301100363047  0.8856903662871852  0.7249847555039315  1.0000
  H   H6        1.0  0.47969430542413904  0.9089755988422308  0.7180368856570614  1.0000
  C   C13       1.0  0.017121426516197857  0.028913723001201097  0.5706324870873858  1.0000
  C   C14       1.0  0.06597730776940658  0.036049277986563544  0.4565115037497658  1.0000
  C   C15       1.0  0.09005383311010595  0.9226229571005555  0.39958072192174443  1.0000
  C   C16       1.0  0.06597720091532233  0.8008981211157645  0.45651143363467384  1.0000
  C   C17       1.0  0.017121392742003305  0.7914105847071587  0.5706324801678013  1.0000
  C   C18       1.0  0.992910262293391  0.9060491745509502  0.6271106018279273  1.0000
  S   S1        1.0  0.15263078999225144  0.9332287755104662  0.2539265071349859  1.0000
  C   C19       1.0  0.06078711675281445  0.9424133993657791  0.14647606777997435  1.0000
  H   H7        1.0  0.9986821360909579  0.3535402662491929  0.6136111568121987  1.0000
  H   H8        1.0  0.0853823378538241  0.12945034571460168  0.4111808803534245  1.0000
  H   H9        1.0  0.08538215085045975  0.7140999540707749  0.41118077858976076  1.0000
  H   H10       1.0  0.9552117193575379  0.899639309470719  0.7151238119545951  1.0000
  H   H11       1.0  0.9986807517379789  0.4605245116976607  0.6136097245915211  1.0000
  H   H12       1.0  0.021907053873787552  0.8533543892701982  0.1636754067881936  1.0000
  H   H13       1.0  0.021907847291854132  0.029589342812239128  0.16367493711354664  1.0000
  H   H14       1.0  0.08264400068452105  0.9501012996392141  0.04389550792801611  1.0000
  C   C20       1.0  0.017040778092560327  0.41003639311474305  0.18927543145069792  1.0000
  C   C21       1.0  0.9282567297298152  0.42094348123947123  0.18691345805811088  1.0000
  C   C22       1.0  0.8836831988375804  0.4285627506231984  0.0687614293107881  1.0000
  C   C23       1.0  0.9284440826635656  0.4212198695781133  0.9517418319624036  1.0000
  C   C24       1.0  0.01720203458350289  0.4102878969960293  0.9519894448440631  1.0000
  C   C25       1.0  0.0610193807317172  0.4052789850645988  0.0712585030756061  1.0000
  N   N3        1.0  0.79272053040171  0.437709285006157  0.0703690429320194  1.0000
  C   C26       1.0  0.7430115174070937  0.5090704283032672  0.972145222639142  1.0000
  O   O2        1.0  0.777144111455991  0.5837747535460904  0.885138465491313  1.0000
  H   H15       1.0  0.18444951773758933  0.3880731987215047  0.401089646220534  1.0000
  H   H16       1.0  0.8932709664928854  0.4246731340368697  0.2769633417610342  1.0000
  H   H17       1.0  0.8940541918279967  0.4213201171911636  0.8607856291595262  1.0000
  H   H18       1.0  0.12946317331548673  0.39688760883090235  0.07220191836840417  1.0000
  H   H19       1.0  0.05118649595764091  0.4041235554718523  0.6247894642272618  1.0000
  H   H20       1.0  0.7605468743047737  0.39766525300154454  0.1523690853764148  1.0000
  H   H21       1.0  0.6746784262276643  0.5016593004040073  0.9748334554232989  1.0000
  Zn  Zn1       1.0  0.9242772732733073  0.4110959506577889  0.5703536331596011  1.0000
  Zn  Zn2       1.0  0.10995742752851023  0.4092278003657561  0.5709106653705289  1.0000
  C   C27       1.0  0.017169663343358454  0.4050682679008013  0.8078201945483061  1.0000
  C   C28       1.0  0.017067065106834756  0.4152571008879451  0.3334442375269604  1.0000
  C   C29       1.0  0.017115939251832746  0.6472807733222667  0.565457419656034  1.0000
  C   C30       1.0  0.017120725853420282  0.17304303629675144  0.575807081465739  1.0000
  O   O3        1.0  0.08754053812884388  0.4162946007830084  0.38203999666591204  1.0000
  O   O4        1.0  0.08762313097574781  0.40261190561108284  0.7596468361342865  1.0000
  O   O5        1.0  0.08757879848070527  0.5982015769364357  0.5639371778021485  1.0000
  O   O6        1.0  0.08758480724323969  0.22070493935042834  0.5777495574363394  1.0000
  O   O7        1.0  0.9466498301950528  0.5996188123120358  0.5635147408968715  1.0000
  O   O8        1.0  0.9466941626715097  0.40403070079533077  0.7592243299855845  1.0000
  O   O9        1.0  0.9466115695508519  0.41771335020956757  0.3816159291653607  1.0000
  O   O10       1.0  0.9466558386823689  0.2221236795231345  0.5773255873005807  1.0000
