data_image0
_chemical_formula_structural       NC9NC3OH6C6ClH5C9H8Zn2C4O8
_chemical_formula_sum              "N2 C31 O9 H19 Cl1 Zn2"
_cell_length_a       15.78231758774541
_cell_length_b       10.30297070629231
_cell_length_c       9.275155815604963
_cell_angle_alpha    86.05280978821669
_cell_angle_beta     90.4446892459172
_cell_angle_gamma    89.63144908567993

_space_group_name_H-M_alt    "P 1"
_space_group_IT_number       1

loop_
  _space_group_symop_operation_xyz
  'x, y, z'

loop_
  _atom_site_type_symbol
  _atom_site_label
  _atom_site_symmetry_multiplicity
  _atom_site_fract_x
  _atom_site_fract_y
  _atom_site_fract_z
  _atom_site_occupancy
  N   N1        1.0  0.7920366156142142  0.4005740417880197  0.4129210525466114  1.0000
  C   C1        1.0  0.7436035672358562  0.31874288181983634  0.4396441503315025  1.0000
  C   C2        1.0  0.6834721107465241  0.21717052443855311  0.4728143991459346  1.0000
  C   C3        1.0  0.7032887216901067  0.08957859537957624  0.5143934496297811  1.0000
  C   C4        1.0  0.6266330912574462  0.027743190311722676  0.5346270205319343  1.0000
  C   C5        1.0  0.5647386115558642  0.12217617410682236  0.5038995765093179  1.0000
  C   C6        1.0  0.47166904884434824  0.10471774456873151  0.509682451644617  1.0000
  C   C7        1.0  0.4177942377812507  0.21176795474022447  0.47466589331248654  1.0000
  C   C8        1.0  0.3296053440281007  0.19745252239918099  0.47941565908548167  1.0000
  C   C9        1.0  0.27503022802814314  0.307617343345014  0.4433711240982463  1.0000
  N   N2        1.0  0.23116474151111133  0.3961756351641439  0.414394539457799  1.0000
  C   C10       1.0  0.2946101754442341  0.07592756806776246  0.5192363553781403  1.0000
  C   C11       1.0  0.3475538036087689  0.9690987185110653  0.5541853533797354  1.0000
  C   C12       1.0  0.4355575132125016  0.9830208720704228  0.5495646597673882  1.0000
  O   O1        1.0  0.6010617374212472  0.23409070031256474  0.4673754030315369  1.0000
  H   H1        1.0  0.7658008635650772  0.046549584125708865  0.5283589650973621  1.0000
  H   H2        1.0  0.6180237449431415  0.9260686447278801  0.567777171018597  1.0000
  H   H3        1.0  0.44428490252197833  0.3063358769177571  0.4436730908749804  1.0000
  H   H4        1.0  0.2265087754573699  0.06380312261935162  0.5232568045610875  1.0000
  H   H5        1.0  0.3203320400349483  0.8751773153557402  0.58496674303321  1.0000
  H   H6        1.0  0.47474652049098  0.8984049706282656  0.5772558829882972  1.0000
  C   C13       1.0  0.011604730098581761  0.017127407146435125  0.4136640165810388  1.0000
  C   C14       1.0  0.09920151988475934  0.013322242854586941  0.4417179502150954  1.0000
  C   C15       1.0  0.14266470861190217  0.894477377206858  0.45563746256731186  1.0000
  C   C16       1.0  0.09920151895965557  0.7782142736682818  0.4417178824301613  1.0000
  C   C17       1.0  0.011604739444008638  0.7796123495053493  0.41366409911565993  1.0000
  C   C18       1.0  0.9682333392320818  0.899658052488943  0.3997738509157551  1.0000
  Cl  Cl1       1.0  0.2520939691521429  0.8912273365777198  0.4906834103131761  1.0000
  H   H7        1.0  0.9786085506290647  0.3458638579865534  0.40309578422169823  1.0000
  H   H8        1.0  0.13404089158106758  0.10233410009324295  0.45287555767645493  1.0000
  H   H9        1.0  0.13404085769239726  0.6871329068015304  0.45287545401478924  1.0000
  H   H10       1.0  0.9006760365361823  0.9016643831806278  0.37813776951649314  1.0000
  H   H11       1.0  0.9786085474950286  0.4528358934520347  0.4030960563203623  1.0000
  C   C19       1.0  0.010052229407628177  0.3951038036732879  0.9904275876438002  1.0000
  C   C20       1.0  0.9437659353375712  0.45902774882945785  0.05802004076129541  1.0000
  C   C21       1.0  0.8831551199322693  0.5315231889941747  0.9765318976557511  1.0000
  C   C22       1.0  0.8877065708935095  0.5416112958752215  0.8259653726623761  1.0000
  C   C23       1.0  0.9522877337735345  0.4770068929973732  0.7566588332648596  1.0000
  C   C24       1.0  0.013157240524802383  0.40163587694100356  0.8369004320953235  1.0000
  C   C25       1.0  0.8253829629216555  0.6171570183004687  0.7421588640951051  1.0000
  C   C26       1.0  0.7731981686995039  0.6804162168550432  0.6719557174941251  1.0000
  C   C27       1.0  0.709881304686458  0.7571705527785231  0.5867645943981352  1.0000
  H   H12       1.0  0.20672687105130505  0.28838737647242474  0.1040453626306943  1.0000
  H   H13       1.0  0.9399591215869054  0.45546704845930774  0.1747988051983358  1.0000
  H   H14       1.0  0.8331524197912398  0.5808208636211256  0.03117714828607676  1.0000
  H   H15       1.0  0.9538533208295579  0.4830960865097811  0.6395177908225578  1.0000
  H   H16       1.0  0.14438625105260794  0.325137626132298  0.5637583736698404  1.0000
  H   H17       1.0  0.7270998281739063  0.760728261714108  0.47082338239599064  1.0000
  H   H18       1.0  0.646773422837468  0.7115713990881778  0.6015791188594601  1.0000
  H   H19       1.0  0.7077368843000841  0.857439624479855  0.6232621293878342  1.0000
  Zn  Zn1       1.0  0.9187595339183672  0.3993013529496108  0.41335458515594525  1.0000
  Zn  Zn2       1.0  0.10444183793190742  0.3974378188267462  0.41397278865033527  1.0000
  C   C28       1.0  0.01256844928490386  0.39522919538148127  0.6768989680800785  1.0000
  C   C29       1.0  0.010634950729317971  0.4015115952344246  0.1504285539370327  1.0000
  C   C30       1.0  0.011579323069544234  0.6354421584372332  0.40792071309137956  1.0000
  C   C31       1.0  0.011624013866093463  0.1612970736019308  0.419406885554521  1.0000
  O   O2        1.0  0.0812959840095786  0.4029492431937163  0.2043609448560184  1.0000
  O   O3        1.0  0.08283598683294113  0.39237618553010556  0.6234353644213544  1.0000
  O   O4        1.0  0.08203631049389748  0.5863512122032914  0.40623351728962076  1.0000
  O   O5        1.0  0.08209559659142807  0.2089742256097713  0.4215626837121256  1.0000
  O   O6        1.0  0.9411057118945612  0.5877649468038735  0.40576468987561154  1.0000
  O   O7        1.0  0.9419053879479039  0.39379147934471725  0.6229664601600127  1.0000
  O   O8        1.0  0.9403653788245906  0.4043644783943232  0.20389030778012907  1.0000
  O   O9        1.0  0.9411649917993492  0.2103894523584251  0.42109215469331973  1.0000
