data_image0
_chemical_formula_structural       NC9NC3OH6C6H6C6SCH8Zn2C4O8
_chemical_formula_sum              "N2 C29 O9 H20 S1 Zn2"
_cell_length_a       15.78231758774541
_cell_length_b       10.681118228259551
_cell_length_c       10.302812801239593
_cell_angle_alpha    85.56070456514432
_cell_angle_beta     90.08384720459999
_cell_angle_gamma    89.63144314392761

_space_group_name_H-M_alt    "P 1"
_space_group_IT_number       1

loop_
  _space_group_symop_operation_xyz
  'x, y, z'

loop_
  _atom_site_type_symbol
  _atom_site_label
  _atom_site_symmetry_multiplicity
  _atom_site_fract_x
  _atom_site_fract_y
  _atom_site_fract_z
  _atom_site_occupancy
  N   N1        1.0  0.7978583319116292  0.3628027035394168  0.5703703181370321  1.0000
  C   C1        1.0  0.7493272619194826  0.2836697241029267  0.5944422967065672  1.0000
  C   C2        1.0  0.689074135354814  0.18544646161300005  0.6243218235876071  1.0000
  C   C3        1.0  0.7087382323505518  0.062062215503225326  0.661775939872445  1.0000
  C   C4        1.0  0.6320083841938849  0.002265379847391502  0.6800021982644535  1.0000
  C   C5        1.0  0.5702266142185735  0.09358384316937451  0.6523231327746768  1.0000
  C   C6        1.0  0.47713583962476264  0.07670045497610678  0.6575323060408664  1.0000
  C   C7        1.0  0.42338947100141633  0.18022137915158964  0.6259896365229942  1.0000
  C   C8        1.0  0.3351831548624189  0.16637740560251624  0.6302681921396285  1.0000
  C   C9        1.0  0.28074025197249897  0.2729103247682163  0.59779952847829  1.0000
  N   N2        1.0  0.23698105297965394  0.3585490471617263  0.571697624789314  1.0000
  C   C10       1.0  0.3000419220126568  0.04885843150497404  0.6661383953585842  1.0000
  C   C11       1.0  0.3528573555510175  0.9455515339303555  0.6976202070063182  1.0000
  C   C12       1.0  0.44087801409754324  0.959015191319562  0.6934579186844407  1.0000
  O   O1        1.0  0.6066837125121426  0.20180809241071507  0.6194224141440947  1.0000
  H   H1        1.0  0.7711991480579087  0.020452621367031965  0.6743559779914081  1.0000
  H   H2        1.0  0.623277441536958  0.9039436965666975  0.7098636207071931  1.0000
  H   H3        1.0  0.44999381886174583  0.27167197882446725  0.598071538014342  1.0000
  H   H4        1.0  0.2319257748112971  0.03713330533118042  0.6697599877178657  1.0000
  H   H5        1.0  0.3255226843299599  0.8547261380175388  0.7253478663657247  1.0000
  H   H6        1.0  0.47996544861919255  0.877188853222405  0.7184019778455075  1.0000
  C   C13       1.0  0.01742374695575899  0.9929258402888532  0.5710395610056678  1.0000
  C   C14       1.0  0.05462054156215057  0.9180522572646983  0.6742567620725386  1.0000
  C   C15       1.0  0.054620528607673746  0.7871700192143907  0.6742567026767134  1.0000
  C   C16       1.0  0.01742373272960207  0.7284162443834784  0.5710396170855045  1.0000
  C   C17       1.0  0.980257729753153  0.8032781293538538  0.46790771219929805  1.0000
  C   C18       1.0  0.9802577426652043  0.9341703873276223  0.46790776493056985  1.0000
  H   H7        1.0  0.979807490599005  0.29978633594800397  0.46665956031824374  1.0000
  H   H8        1.0  0.08377719428862074  0.9605454436255272  0.7551632355379234  1.0000
  H   H9        1.0  0.08377709011209378  0.7320414160389077  0.7551632122899212  1.0000
  H   H10       1.0  0.9510972754041587  0.7608305228710495  0.38699067486383165  1.0000
  H   H11       1.0  0.9510972531938285  0.989254962120088  0.38699066424005446  1.0000
  H   H12       1.0  0.9798078025618404  0.4378569820366361  0.4666592100649345  1.0000
  C   C19       1.0  0.01742376004448598  0.360671033806947  0.18979112849006285  1.0000
  C   C20       1.0  0.9888482848229588  0.48583328138546733  0.17850748567738295  1.0000
  C   C21       1.0  0.9744115842976797  0.5479274727543271  0.05591685573569749  1.0000
  C   C22       1.0  0.9888482084350209  0.48583315066652877  0.9433563157572373  1.0000
  C   C23       1.0  0.017423705084319563  0.3606710258999297  0.9522880319534792  1.0000
  C   C24       1.0  0.03154569999807788  0.29869085505419823  0.07604486250857123  1.0000
  S   S1        1.0  0.9380762101744998  0.7079317891465928  0.04299571407950298  1.0000
  C   C25       1.0  0.826621105689705  0.6652575210159677  0.046170964348483334  1.0000
  H   H13       1.0  0.028160989430931593  0.3134877002087677  0.5213576568377782  1.0000
  H   H14       1.0  0.9774969490545444  0.5355480936680534  0.2645922299749046  1.0000
  H   H15       1.0  0.977496779413091  0.535547914915143  0.8492419164800395  1.0000
  H   H16       1.0  0.0535718655899724  0.20213951261318042  0.08384197100266522  1.0000
  H   H17       1.0  0.028159411739707707  0.3134870653291537  0.6283420665549695  1.0000
  H   H18       1.0  0.8115960608910537  0.6096923484642585  0.9624792235924238  1.0000
  H   H19       1.0  0.8115964237929526  0.6096936105584918  0.138713916722911  1.0000
  H   H20       1.0  0.7874052641850272  0.7520754254914095  0.0391159326747208  1.0000
  Zn  Zn1       1.0  0.9245796599935132  0.36157184509517926  0.5707608412649492  1.0000
  Zn  Zn2       1.0  0.11025969640477018  0.35976968464885806  0.5713177146266062  1.0000
  C   C26       1.0  0.017421827507748455  0.3556821171949305  0.8081597974759358  1.0000
  C   C27       1.0  0.01741955651069782  0.36566097297305244  0.333918891922969  1.0000
  C   C28       1.0  0.01741936599984406  0.5893929190510068  0.5658660555295143  1.0000
  C   C29       1.0  0.017421954659029737  0.13194866714869824  0.5762127028960167  1.0000
  O   O2        1.0  0.08788275190497097  0.3666462682291587  0.3825008164925985  1.0000
  O   O3        1.0  0.08788548340609004  0.3533280791232105  0.7600001531746039  1.0000
  O   O4        1.0  0.08788254581064203  0.5420525165179018  0.5643462394356655  1.0000
  O   O5        1.0  0.0878856261404064  0.17792184040788706  0.5781546326976021  1.0000
  O   O6        1.0  0.9469536668943935  0.5434196899525019  0.5639239229970907  1.0000
  O   O7        1.0  0.9469566044859307  0.3546967571424411  0.7595777675125406  1.0000
  O   O8        1.0  0.9469538730412713  0.36801490260802416  0.38207686992318046  1.0000
  O   O9        1.0  0.9469567472732358  0.17929046582968544  0.5777307834652565  1.0000
