data_image0
_chemical_formula_structural       NC9NC3OH6C6SCH6C6FH3Zn2C4O8
_chemical_formula_sum              "N2 C29 O9 H15 S1 F1 Zn2"
_cell_length_a       15.78231758774541
_cell_length_b       10.302809429070853
_cell_length_c       9.275646106892307
_cell_angle_alpha    84.95236572159425
_cell_angle_beta     90.10253560025424
_cell_angle_gamma    89.63144148246117

_space_group_name_H-M_alt    "P 1"
_space_group_IT_number       1

loop_
  _space_group_symop_operation_xyz
  'x, y, z'

loop_
  _atom_site_type_symbol
  _atom_site_label
  _atom_site_symmetry_multiplicity
  _atom_site_fract_x
  _atom_site_fract_y
  _atom_site_fract_z
  _atom_site_occupancy
  N   N1        1.0  0.7974884204794663  0.42808494395996366  0.41065472710329254  1.0000
  C   C1        1.0  0.7489635801389548  0.34578964540290613  0.43741599200196446  1.0000
  C   C2        1.0  0.6887181861768392  0.24364117247912032  0.47063361603715254  1.0000
  C   C3        1.0  0.7083919760285305  0.115327075855872  0.5122720515974568  1.0000
  C   C4        1.0  0.6316668446915922  0.05314024711012501  0.5325345209685115  1.0000
  C   C5        1.0  0.5698779115704788  0.14810692407372938  0.5017631906067932  1.0000
  C   C6        1.0  0.47678848506774807  0.13054805891425758  0.5075543250712184  1.0000
  C   C7        1.0  0.4230339534360921  0.23820644939384408  0.47248775455807396  1.0000
  C   C8        1.0  0.3348287445515414  0.22380852460969858  0.4772443041300176  1.0000
  C   C9        1.0  0.28037743901345  0.3345993796963245  0.4411482887638565  1.0000
  N   N2        1.0  0.2366114850425481  0.4236609469441144  0.41213031850034487  1.0000
  C   C10       1.0  0.2996967946395671  0.10159195327943005  0.5171218740585546  1.0000
  C   C11       1.0  0.3525203754363898  0.994156097059145  0.5521207877467815  1.0000
  C   C12       1.0  0.440539956817555  0.008158501309968534  0.5474934946818384  1.0000
  O   O1        1.0  0.6063264953978363  0.26065581939481763  0.4651868516757262  1.0000
  H   H1        1.0  0.7708561473626121  0.07205550121394942  0.5262575132651555  1.0000
  H   H2        1.0  0.6229436299550579  0.9508899324957197  0.5657320179900645  1.0000
  H   H3        1.0  0.44963107630360427  0.33331266298774187  0.441450686865339  1.0000
  H   H4        1.0  0.2315815846761882  0.08939768181835128  0.5211480654031706  1.0000
  H   H5        1.0  0.3251928799239098  0.8997000743846736  0.5829461407064715  1.0000
  H   H6        1.0  0.47963384667546116  0.923061649264938  0.5752242677148525  1.0000
  C   C13       1.0  0.017054016018762868  0.04461943452612749  0.4113987975711155  1.0000
  C   C14       1.0  0.06590451520459917  0.053008936608405006  0.2845645651468103  1.0000
  C   C15       1.0  0.08997835562886664  0.9402081640353411  0.22129160864668607  1.0000
  C   C16       1.0  0.06590440834720751  0.8178577805080218  0.28456448722079153  1.0000
  C   C17       1.0  0.017053982244241917  0.8071162963081168  0.41139878988067924  1.0000
  C   C18       1.0  0.9928455153641244  0.921134311612295  0.4741686591897811  1.0000
  S   S1        1.0  0.15254844330278983  0.9524144127468819  0.05941129539010092  1.0000
  C   C19       1.0  0.060699702585953696  0.962779688595815  0.9399907155750061  1.0000
  H   H7        1.0  0.08530740744843673  0.14690809155885187  0.2341840421646277  1.0000
  H   H8        1.0  0.08530722044027311  0.7315577010331918  0.23418392906433882  1.0000
  H   H9        1.0  0.9551511232251954  0.9137573683830614  0.571986673223096  1.0000
  H   H10       1.0  0.021820450846110825  0.8735316943135624  0.9591060868022168  1.0000
  H   H11       1.0  0.021821244242026906  0.049766653016329425  0.9591055648051081  1.0000
  H   H12       1.0  0.08255174870897619  0.971594731235748  0.8259825271598475  1.0000
  C   C20       1.0  0.016955382389368893  0.4299324082877637  0.9875579926932319  1.0000
  C   C21       1.0  0.09453825428467794  0.44271996920818735  0.05987954469361734  1.0000
  C   C22       1.0  0.17107085042459005  0.4433275867805377  0.9846908980187048  1.0000
  C   C23       1.0  0.17136465832620537  0.43102800745871767  0.8363156316901241  1.0000
  C   C24       1.0  0.0951095536298549  0.42039179761458584  0.7620665821727033  1.0000
  C   C25       1.0  0.017152577829452783  0.4218033284319016  0.8352395389035583  1.0000
  F   F1        1.0  0.24527309678390663  0.4543014501634619  0.05637545137441213  1.0000
  H   H13       1.0  0.8204780222585886  0.3264345998247489  0.10005068827044217  1.0000
  H   H14       1.0  0.23078271307348608  0.43097253127715796  0.7781999306871779  1.0000
  H   H15       1.0  0.8841372273522913  0.3574704237832249  0.5599468208796958  1.0000
  Zn  Zn1       1.0  0.924209849624823  0.4268047261948098  0.4110888788966116  1.0000
  Zn  Zn2       1.0  0.10989003015025983  0.42493045530248685  0.411707965333149  1.0000
  C   C26       1.0  0.017113438871351423  0.41816779055058767  0.675009572175872  1.0000
  C   C27       1.0  0.016988468558405623  0.43356900724453334  0.147787420476154  1.0000
  C   C28       1.0  0.01704828469269469  0.6630433478411148  0.4056472198489216  1.0000
  C   C29       1.0  0.017053559395378896  0.18869189002560338  0.4171498495414956  1.0000
  O   O2        1.0  0.08746423340828069  0.4340725430138721  0.2017968202307172  1.0000
  O   O3        1.0  0.08756463459674352  0.41624075110023867  0.6214696292219373  1.0000
  O   O4        1.0  0.0875110722253385  0.6139808556827056  0.4039576207673359  1.0000
  O   O5        1.0  0.08751773239443822  0.23633244939617362  0.4193087202550865  1.0000
  O   O6        1.0  0.9465820840171107  0.615402732742206  0.40348812375581833  1.0000
  O   O7        1.0  0.9466356463666646  0.4176641887292243  0.6210000552531729  1.0000
  O   O8        1.0  0.9465352448308124  0.4354959520411086  0.2013255109731611  1.0000
  O   O9        1.0  0.9465887438386825  0.2377558480997242  0.4188375192089069  1.0000
