data_image0
_chemical_formula_structural       NC5NC3OH4C9H10C6NCH7Zn2C4O8
_chemical_formula_sum              "N3 C28 O9 H21 Zn2"
_cell_length_a       13.84702359539666
_cell_length_b       10.297183801781406
_cell_length_c       9.273390368590327
_cell_angle_alpha    86.14107260812962
_cell_angle_beta     89.97653543286326
_cell_angle_gamma    89.99848952151973

_space_group_name_H-M_alt    "P 1"
_space_group_IT_number       1

loop_
  _space_group_symop_operation_xyz
  'x, y, z'

loop_
  _atom_site_type_symbol
  _atom_site_label
  _atom_site_symmetry_multiplicity
  _atom_site_fract_x
  _atom_site_fract_y
  _atom_site_fract_z
  _atom_site_occupancy
  N   N1        1.0  0.9095041459107452  0.4064996357529256  0.40913676294571943  1.0000
  C   C1        1.0  0.8373534616166434  0.39929379767662937  0.47219269904862804  1.0000
  C   C2        1.0  0.7474988126329527  0.39032100701142863  0.5507106255788412  1.0000
  C   C3        1.0  0.6599226053882232  0.39898928570107156  0.47485667234445755  1.0000
  C   C4        1.0  0.572053359870953  0.39042171804979603  0.5498289100447498  1.0000
  C   C5        1.0  0.48221048368703245  0.3993463917906346  0.4717321531369435  1.0000
  N   N2        1.0  0.40998844000369494  0.4065211464850632  0.4089485866633921  1.0000
  C   C6        1.0  0.5717549456902409  0.3731600075284294  0.7008804625056022  1.0000
  C   C7        1.0  0.6589509172168151  0.36448362300991627  0.7768024426094775  1.0000
  C   C8        1.0  0.7471355412004079  0.3729959906813307  0.7023148550767997  1.0000
  O   O1        1.0  0.8340518672978542  0.3643048114048502  0.7783682298042924  1.0000
  H   H1        1.0  0.6601583712471389  0.41236228001530323  0.3578349269493281  1.0000
  H   H2        1.0  0.5041940501706956  0.3664168724113016  0.7598870637250706  1.0000
  H   H3        1.0  0.657936821775748  0.3511371604100421  0.8935927929542278  1.0000
  H   H4        1.0  0.8355725135891885  0.35181375584905816  0.8876722920369992  1.0000
  C   C9        1.0  0.15975426376683258  0.025036782324348698  0.40924687239054375  1.0000
  C   C10       1.0  0.15695503531948063  0.033445022374383404  0.2575816272472755  1.0000
  C   C11       1.0  0.15552068535056884  0.9211363222330377  0.17987908708330647  1.0000
  C   C12       1.0  0.15694378403167897  0.7982683027841526  0.2569937953659327  1.0000
  C   C13       1.0  0.1597475603332621  0.7879741184324399  0.40885087450264207  1.0000
  C   C14       1.0  0.1611335809625607  0.9018249978805934  0.483986125053917  1.0000
  C   C15       1.0  0.15249285493097542  0.9396626223630359  0.01584241524925267  1.0000
  C   C16       1.0  0.09595363312509406  0.8401753615053592  0.9356313205931527  1.0000
  C   C17       1.0  0.20597562410482184  0.8404444790446772  0.9310113615270716  1.0000
  H   H5        1.0  0.16084206616854835  0.3493352721199954  0.4676883525839865  1.0000
  H   H6        1.0  0.15587458149630984  0.12811343228033256  0.19903047493537596  1.0000
  H   H7        1.0  0.15589099130773731  0.7101237080692365  0.200068598106041  1.0000
  H   H8        1.0  0.16329276045375019  0.8946104212286825  0.6009990467254358  1.0000
  H   H9        1.0  0.16503027580183074  0.561314852314398  0.6956661423246182  1.0000
  H   H10       1.0  0.1515205436191709  0.03987350886238873  0.9631181449152207  1.0000
  H   H11       1.0  0.06372114292149811  0.7571642489668482  0.0012343492171378266  1.0000
  H   H12       1.0  0.06189417845997647  0.8800708674314929  0.8336710089323156  1.0000
  H   H13       1.0  0.24057558513897304  0.75759764787473  0.9938087655127819  1.0000
  H   H14       1.0  0.23621918145334764  0.8804948922735513  0.8263495572836894  1.0000
  C   C18       1.0  0.15979570002171828  0.4024545191704203  0.9858052019474353  1.0000
  C   C19       1.0  0.24849282471239875  0.3998772154783752  0.05937567397958764  1.0000
  C   C20       1.0  0.335642765766633  0.4093757563157028  0.9839231860991859  1.0000
  C   C21       1.0  0.3363098553678252  0.421803619941372  0.832288496352944  1.0000
  C   C22       1.0  0.24820137760249736  0.42219018845903755  0.7579093380234354  1.0000
  C   C23       1.0  0.1597061302311018  0.4105564022849329  0.8322925651167932  1.0000
  N   N3        1.0  0.4250920127214881  0.4327979518451437  0.7514611352934106  1.0000
  C   C24       1.0  0.5204420157275167  0.4329551539712578  0.8184133984431657  1.0000
  H   H15       1.0  0.0073681293950989  0.3400479787071755  0.2717349025462916  1.0000
  H   H16       1.0  0.40218078725297923  0.40818327232948043  0.045019790132272634  1.0000
  H   H17       1.0  0.9346473817731153  0.30962491632101385  0.7369384916085786  1.0000
  H   H18       1.0  0.42195851358221903  0.4414071225241225  0.6385820118128946  1.0000
  H   H19       1.0  0.5267087964718185  0.516287341406239  0.8878363256753928  1.0000
  H   H20       1.0  0.5322226567189174  0.34009809012396675  0.8840111021685613  1.0000
  H   H21       1.0  0.5770365547245302  0.44277814831292667  0.7334964529390926  1.0000
  Zn  Zn1       1.0  0.05393309955475667  0.406502445193607  0.40909077176458  1.0000
  Zn  Zn2       1.0  0.2655594611479217  0.4065078203850264  0.4090063459015328  1.0000
  C   C25       1.0  0.15972093189941394  0.4038498534194734  0.6722910220589045  1.0000
  C   C26       1.0  0.15977393972714274  0.40916205264144984  0.14580623529701797  1.0000
  C   C27       1.0  0.15974445082493838  0.6437077474258532  0.403182340554354  1.0000
  C   C28       1.0  0.15975034859394688  0.16930259863757202  0.41491499448152014  1.0000
  O   O2        1.0  0.24007773814797395  0.411409534708002  0.19947200748294563  1.0000
  O   O3        1.0  0.24003664527965607  0.40160546703622835  0.618560758210241  1.0000
  O   O4        1.0  0.240054554318776  0.5952937641798124  0.40125359363762314  1.0000
  O   O5        1.0  0.24005975690646844  0.2177212458210367  0.41677906401302445  1.0000
  O   O6        1.0  0.07943273157851993  0.5952890197571037  0.4013180536743169  1.0000
  O   O7        1.0  0.0794148225293807  0.40160228261052455  0.6186251405882115  1.0000
  O   O8        1.0  0.07945591564573198  0.41140628842858934  0.19953465704000162  1.0000
  O   O9        1.0  0.079437934388922  0.2177179912845126  0.4168418216338479  1.0000
