data_image0
_chemical_formula_structural       NC9NC3OH6C6NO2H4C6NO2H3Zn2C4O8
_chemical_formula_sum              "N4 C28 O13 H13 Zn2"
_cell_length_a       15.78231758774541
_cell_length_b       9.273392599741051
_cell_length_c       9.273395971720355
_cell_angle_alpha    85.0859035794884
_cell_angle_beta     89.96902430017013
_cell_angle_gamma    89.0365174922554

_space_group_name_H-M_alt    "P 1"
_space_group_IT_number       1

loop_
  _space_group_symop_operation_xyz
  'x, y, z'

loop_
  _atom_site_type_symbol
  _atom_site_label
  _atom_site_symmetry_multiplicity
  _atom_site_fract_x
  _atom_site_fract_y
  _atom_site_fract_z
  _atom_site_occupancy
  N   N1        1.0  0.7899889652433487  0.5861731949890494  0.41369182716109676  1.0000
  C   C1        1.0  0.7419852083016291  0.49475409035696255  0.44026361963871713  1.0000
  C   C2        1.0  0.6823866049894101  0.381280756020949  0.4732460624219044  1.0000
  C   C3        1.0  0.7028729834387235  0.23874088364792412  0.5145890547615486  1.0000
  C   C4        1.0  0.6265415560882391  0.1696596165350699  0.5347083573707041  1.0000
  C   C5        1.0  0.5641511544609085  0.27515495661005707  0.5041556979906394  1.0000
  C   C6        1.0  0.4711727970364326  0.2556494157067224  0.5099064239513669  1.0000
  C   C7        1.0  0.41673666511066576  0.3752435216936252  0.47508770768356823  1.0000
  C   C8        1.0  0.32862251980924523  0.3592493626928184  0.4798111248445638  1.0000
  C   C9        1.0  0.273469794437745  0.4823232169257625  0.4439701733366932  1.0000
  N   N2        1.0  0.229139991285917  0.5812587319833644  0.415157241221046  1.0000
  C   C10       1.0  0.29426424529037215  0.22348307507742124  0.5194073396726451  1.0000
  C   C11       1.0  0.34776801086481285  0.10413617598243752  0.5541589125167012  1.0000
  C   C12       1.0  0.4356990321724965  0.1196909645393067  0.5495638413792241  1.0000
  O   O1        1.0  0.5998870614479913  0.4001817785448321  0.4678384909117672  1.0000
  H   H1        1.0  0.7656112626391769  0.1906719152063501  0.5284748710618967  1.0000
  H   H2        1.0  0.6184658498810351  0.05607313835742867  0.567670426792465  1.0000
  H   H3        1.0  0.4427317381947748  0.480893821587977  0.4442695830967498  1.0000
  H   H4        1.0  0.22622616453190278  0.20993687819434692  0.5234054691146706  1.0000
  H   H5        1.0  0.3210384485958542  0.9992081514526888  0.584766819273426  1.0000
  H   H6        1.0  0.47533166429528995  0.025159719913977696  0.5770987048807528  1.0000
  C   C13       1.0  0.012152631810690368  0.16016782991749956  0.41352538667371963  1.0000
  C   C14       1.0  0.0015032796909812951  0.24499968558347107  0.2816208689150248  1.0000
  C   C15       1.0  0.9833707447998871  0.18142355439373703  0.15447632620073581  1.0000
  C   C16       1.0  0.9752865842604045  0.031085134791566604  0.1556894500952657  1.0000
  C   C17       1.0  0.9872588041337095  0.9450805366986395  0.286591728713371  1.0000
  C   C18       1.0  0.006984466202251345  0.007252764850483654  0.41533611911436075  1.0000
  N   N3        1.0  0.9558400233514  0.9661501405838241  0.02430759511978598  1.0000
  O   O2        1.0  0.9448590143277997  0.050699002728307636  0.8961107457694277  1.0000
  O   O3        1.0  0.9483777673077718  0.8322980105040351  0.02451315632865048  1.0000
  H   H7        1.0  0.9945157231620303  0.2331747771872448  0.7677706937908715  1.0000
  H   H8        1.0  0.9748189027531869  0.2504644079342888  0.05523136878257495  1.0000
  H   H9        1.0  0.9831647870995028  0.8285135568625988  0.28760564769526087  1.0000
  H   H10       1.0  0.99799562438272  0.706787616565005  0.6547592997139182  1.0000
  C   C19       1.0  0.010023729610534557  0.5881358043569718  0.9905051355967522  1.0000
  C   C20       1.0  0.9342977304727382  0.6219016037881768  0.060910187654985126  1.0000
  C   C21       1.0  0.8584177504573265  0.6420321042051658  0.9842691726426542  1.0000
  C   C22       1.0  0.856112044760146  0.6288081623369179  0.8349382460827619  1.0000
  C   C23       1.0  0.931777683104852  0.5975142610851298  0.76310064789284  1.0000
  C   C24       1.0  0.009113343603438745  0.5792848195033895  0.8383564232155291  1.0000
  N   N4        1.0  0.777442804403004  0.6484892486054243  0.7565788018650093  1.0000
  O   O4        1.0  0.703613831524242  0.6803102013281423  0.8271739265443397  1.0000
  O   O5        1.0  0.774816690252143  0.6366331317743508  0.6235488462034184  1.0000
  H   H11       1.0  0.19642984196060553  0.4244794902806574  0.10720041628904253  1.0000
  H   H12       1.0  0.801243670320032  0.6665864774057897  0.04251298221191946  1.0000
  H   H13       1.0  0.13617491808398163  0.47330119612539767  0.5671054835335809  1.0000
  Zn  Zn1       1.0  0.9167184760914882  0.5847510475249877  0.4141230354262908  1.0000
  Zn  Zn2       1.0  0.10241051109502236  0.582668984489465  0.4147378087795617  1.0000
  C   C25       1.0  0.009318608955859894  0.5752119860822607  0.6780820677972155  1.0000
  C   C26       1.0  0.009812394726638418  0.5922098415666452  0.15077892870247922  1.0000
  C   C27       1.0  0.007963172800294906  0.8471958103026334  0.40924119660133584  1.0000
  C   C28       1.0  0.01116777800830614  0.320224284382413  0.4196198729492502  1.0000
  O   O6        1.0  0.08021066674120186  0.5927807012316622  0.2048015676207693  1.0000
  O   O7        1.0  0.07985630197246912  0.5730598050080662  0.6245256097399701  1.0000
  O   O8        1.0  0.0787608185653006  0.7926901777521791  0.4074347042162729  1.0000
  O   O9        1.0  0.08130608683752971  0.37315034064568775  0.4218923647160955  1.0000
  O   O10       1.0  0.9378228369814013  0.79426969208092  0.4069684792723751  1.0000
  O   O11       1.0  0.9389183098948878  0.5746410530128213  0.6240593115277994  1.0000
  O   O12       1.0  0.9392726768902334  0.5943619170933885  0.20433353366493573  1.0000
  O   O13       1.0  0.9403680969298228  0.37473154506143125  0.4214244389712512  1.0000
