data_image0
_chemical_formula_structural       NC9NC3SH6C6NO2H5C7F3H2Zn2C4O8
_chemical_formula_sum              "N3 C29 S1 H13 O10 F3 Zn2"
_cell_length_a       16.77567553997237
_cell_length_b       9.273392599741053
_cell_length_c       9.272721663655245
_cell_angle_alpha    86.00529282621046
_cell_angle_beta     90.90861439337802
_cell_angle_gamma    90.29770283283837

_space_group_name_H-M_alt    "P 1"
_space_group_IT_number       1

loop_
  _space_group_symop_operation_xyz
  'x, y, z'

loop_
  _atom_site_type_symbol
  _atom_site_label
  _atom_site_symmetry_multiplicity
  _atom_site_fract_x
  _atom_site_fract_y
  _atom_site_fract_z
  _atom_site_occupancy
  N   N1        1.0  0.7337095202074071  0.5898150360344534  0.42053627442328745  1.0000
  C   C1        1.0  0.6788771811019626  0.6448533757722862  0.4668516161455345  1.0000
  C   C2        1.0  0.6108294520412975  0.7131523137265043  0.5243254128904653  1.0000
  C   C3        1.0  0.6129298776207632  0.8115720025523201  0.6300936959088719  1.0000
  C   C4        1.0  0.5371907956513836  0.8600452420292375  0.6651928003309775  1.0000
  C   C5        1.0  0.4751404746633215  0.799583283335681  0.5866473437208454  1.0000
  C   C6        1.0  0.3885443795270361  0.8285946882317855  0.598761271099703  1.0000
  C   C7        1.0  0.3319108304297895  0.7398488813390276  0.5338411714543967  1.0000
  C   C8        1.0  0.2501713544526211  0.7666211433925105  0.5447768278963951  1.0000
  C   C9        1.0  0.19287955950848218  0.6749032465957396  0.47830070495077565  1.0000
  N   N2        1.0  0.1468339536672576  0.6011752027313826  0.42486372305154657  1.0000
  C   C10       1.0  0.22423272448030385  0.8824863420847936  0.620454451727491  1.0000
  C   C11       1.0  0.2797710702465644  0.971405547289302  0.6848623758496113  1.0000
  C   C12       1.0  0.3613522126615678  0.9450385140760413  0.6742547449915404  1.0000
  S   S1        1.0  0.5158149357981683  0.685581249044976  0.47411947740605703  1.0000
  H   H1        1.0  0.66738320187241  0.847242061690322  0.6809949988591266  1.0000
  H   H2        1.0  0.5289004485053147  0.9359101670518074  0.7469589733774741  1.0000
  H   H3        1.0  0.3509342614510058  0.6492411309581368  0.47539943098249093  1.0000
  H   H4        1.0  0.1611697848429758  0.9041450746113893  0.6294838437621533  1.0000
  H   H5        1.0  0.2595691145589767  0.06133223081479367  0.7429500653552377  1.0000
  H   H6        1.0  0.4026295717901814  0.017100807197643075  0.7241164359379446  1.0000
  C   C13       1.0  0.9427011081683059  0.17202825916031106  0.42181871509359103  1.0000
  C   C14       1.0  0.9318977769453787  0.2543380006177871  0.28998553201646504  1.0000
  C   C15       1.0  0.9140832471834555  0.18803962963040607  0.16285844683266837  1.0000
  C   C16       1.0  0.9064855829562879  0.037421623235493154  0.16401756012128074  1.0000
  C   C17       1.0  0.9185273879165097  0.9539719234767994  0.2948581999859298  1.0000
  C   C18       1.0  0.9378501206415985  0.01895115637944022  0.4235938139829942  1.0000
  N   N3        1.0  0.8874097018313658  0.9696474020493056  0.032649116425611524  1.0000
  O   O1        1.0  0.8763164508243325  0.05172169307618037  0.9045174819734564  1.0000
  O   O2        1.0  0.8803910733570747  0.8355224439344874  0.03280579773817616  1.0000
  H   H7        1.0  0.9282189139591674  0.25009762187540147  0.775570938214593  1.0000
  H   H8        1.0  0.9353615277773164  0.3712517002546807  0.285761568506387  1.0000
  H   H9        1.0  0.9054475221412589  0.25516288854080016  0.06366364511307498  1.0000
  H   H10       1.0  0.9146821234534861  0.8372698002343879  0.29584434023087214  1.0000
  H   H11       1.0  0.9308196616383018  0.7220160116659616  0.6627028499587899  1.0000
  C   C19       1.0  0.9381798464410706  0.5930928212246174  0.9992360589574043  1.0000
  C   C20       1.0  0.9727826606961717  0.47607483191684463  0.08206656271403663  1.0000
  C   C21       1.0  0.014323213197446892  0.36782655895151506  0.016360889171939785  1.0000
  C   C22       1.0  0.018829659699137965  0.3745919869056004  0.865272592114385  1.0000
  C   C23       1.0  0.9837716025618453  0.4885946233916702  0.7814625446899175  1.0000
  C   C24       1.0  0.9423713988839101  0.5978866504109397  0.8461764788411655  1.0000
  C   C25       1.0  0.04916925222225577  0.241276806295331  0.10679839612782112  1.0000
  F   F1        1.0  0.07577505898765535  0.28392626669021426  0.23940040174140886  1.0000
  F   F2        1.0  0.11305354607201856  0.18337708032357658  0.0382190718164006  1.0000
  F   F3        1.0  0.9912393032520164  0.13586894479525258  0.12900349972153125  1.0000
  H   H12       1.0  0.048778958811072304  0.29069150833553814  0.8114958172793658  1.0000
  H   H13       1.0  0.7979249872490538  0.8371760694642331  0.7238969354109965  1.0000
  Zn  Zn1       1.0  0.8529283739083698  0.5930895318385687  0.42179341092447714  1.0000
  Zn  Zn2       1.0  0.027615220990714787  0.5978890101292387  0.42361840438620896  1.0000
  C   C26       1.0  0.9416102160261133  0.5912356624090129  0.6860745621970805  1.0000
  C   C27       1.0  0.9389352767266786  0.5997447522716254  0.15933741839424598  1.0000
  C   C28       1.0  0.9387345162415874  0.8588320892981475  0.4175117784365796  1.0000
  C   C29       1.0  0.9418109272068933  0.3321465916405455  0.42790027478288833  1.0000
  O   O3        1.0  0.005481590145480331  0.603792286931295  0.2137614594867987  1.0000
  O   O4        1.0  0.007647181740973117  0.5908297304990405  0.6330352315175065  1.0000
  O   O5        1.0  0.005324131559682363  0.8069172133648375  0.41616887731100727  1.0000
  O   O6        1.0  0.007804580123785823  0.3877048121315012  0.4306277049678069  1.0000
  O   O7        1.0  0.8727389551632041  0.8032737282000069  0.4147841097125166  1.0000
  O   O8        1.0  0.8750619950367126  0.5871879774398556  0.6316503906605122  1.0000
  O   O9        1.0  0.8728963952015787  0.600150473808538  0.21237488475316968  1.0000
  O   O10       1.0  0.8752193857707748  0.38406298930644134  0.42924123832930716  1.0000
