data_image0
_chemical_formula_structural       NC9NC3SH6C7ONH7C7NC2NH8Zn2C4O8
_chemical_formula_sum              "N5 C32 S1 H21 O9 Zn2"
_cell_length_a       16.77567553997237
_cell_length_b       10.297852080636378
_cell_length_c       9.27399911348925
_cell_angle_alpha    85.0628220767755
_cell_angle_beta     90.06803896743476
_cell_angle_gamma    90.87229915396684

_space_group_name_H-M_alt    "P 1"
_space_group_IT_number       1

loop_
  _space_group_symop_operation_xyz
  'x, y, z'

loop_
  _atom_site_type_symbol
  _atom_site_label
  _atom_site_symmetry_multiplicity
  _atom_site_fract_x
  _atom_site_fract_y
  _atom_site_fract_z
  _atom_site_occupancy
  N   N1        1.0  0.7555229933674744  0.4526371759608012  0.41580182939922206  1.0000
  C   C1        1.0  0.70061463223403  0.5016106602929611  0.4620419608051669  1.0000
  C   C2        1.0  0.6324725687992717  0.5623835202009078  0.5194224261042919  1.0000
  C   C3        1.0  0.634248197497745  0.649659047117408  0.6250763697397534  1.0000
  C   C4        1.0  0.5584890036627251  0.6928650164049919  0.6601042367711032  1.0000
  C   C5        1.0  0.49674988753846633  0.639426015678682  0.5816171058344719  1.0000
  C   C6        1.0  0.4102149447181982  0.665400806135932  0.5936805876361377  1.0000
  C   C7        1.0  0.3536236480954328  0.5863070243461721  0.528890331327506  1.0000
  C   C8        1.0  0.271942606965822  0.6102802122362991  0.5397792219923787  1.0000
  C   C9        1.0  0.2146893921994681  0.5285295323810593  0.47343783367518855  1.0000
  N   N2        1.0  0.16867479687646  0.46281369859600613  0.42010915936456045  1.0000
  C   C10       1.0  0.2460235500055014  0.7136621870366986  0.615279349389511  1.0000
  C   C11       1.0  0.3015248198770334  0.7929188339658249  0.6795566152953918  1.0000
  C   C12       1.0  0.38304707453466413  0.7693063905168628  0.6689951850683096  1.0000
  S   S1        1.0  0.537718382645413  0.5382024394580244  0.46923045154436305  1.0000
  H   H1        1.0  0.6884803725592926  0.6811264041277753  0.6759472698890967  1.0000
  H   H2        1.0  0.5499463448382079  0.7601365942136693  0.7417824813922123  1.0000
  H   H3        1.0  0.3726256915054724  0.5054516532859769  0.4705880437653654  1.0000
  H   H4        1.0  0.183006382479985  0.7330540942372193  0.6242710681904438  1.0000
  H   H5        1.0  0.2813433895529328  0.8731653328907965  0.7375059749627935  1.0000
  H   H6        1.0  0.42431361220797026  0.8335683468016901  0.7187489359039357  1.0000
  C   C13       1.0  0.9621876654457787  0.07629042246978245  0.41796505192171707  1.0000
  C   C14       1.0  0.9517667416044041  0.08675420609279949  0.2670754313816839  1.0000
  C   C15       1.0  0.9457781899887875  0.9749487811381593  0.19067782279666612  1.0000
  C   C16       1.0  0.9515653622188943  0.8514974272758875  0.2670235392420557  1.0000
  C   C17       1.0  0.9620176850232366  0.8391505701368508  0.4179584807945788  1.0000
  C   C18       1.0  0.9670716722461874  0.9520675141419652  0.4924752535855901  1.0000
  C   C19       1.0  0.934969401749877  0.9886063092664108  0.03129085584966474  1.0000
  O   O1        1.0  0.9565013279454734  0.09280544243664227  0.9596410847081995  1.0000
  N   N3        1.0  0.8995947213767751  0.8865102541903644  0.9564029204459111  1.0000
  H   H7        1.0  0.9821721748002954  0.2637950426401705  0.7030729541025498  1.0000
  H   H8        1.0  0.9475882895830566  0.18223471652941828  0.20885149943521464  1.0000
  H   H9        1.0  0.9494982746472446  0.7647008285389992  0.20911361308995136  1.0000
  H   H10       1.0  0.9751012191265811  0.943249347948942  0.6087677382418628  1.0000
  H   H11       1.0  0.983050757065504  0.6085928914470093  0.7029457932851313  1.0000
  H   H12       1.0  0.8959443492242685  0.8963765664551118  0.8435934732246331  1.0000
  H   H13       1.0  0.872189545949778  0.8052640073376005  0.011576928846976472  1.0000
  C   C20       1.0  0.9634787870793284  0.46107874963166817  0.9941247311355556  1.0000
  C   C21       1.0  0.026072351626172493  0.40042300751822363  0.07326222290235607  1.0000
  C   C22       1.0  0.08339089437054525  0.3303900308835148  0.00520808303950848  1.0000
  C   C23       1.0  0.07965653834046259  0.31858399389784653  0.855872828344411  1.0000
  C   C24       1.0  0.01826229190468153  0.3814628300444006  0.7751891825676296  1.0000
  C   C25       1.0  0.9607265923133167  0.4543622458053955  0.8417988103985987  1.0000
  C   C26       1.0  0.14085513498567148  0.24240648418916705  0.7858157943787032  1.0000
  N   N4        1.0  0.20762376313618058  0.19866648649768637  0.8545509999961274  1.0000
  C   C27       1.0  0.24623047600013973  0.13462485688603423  0.7556309054155363  1.0000
  C   C28       1.0  0.2026829697750243  0.14002568482509314  0.6296347774565847  1.0000
  N   N5        1.0  0.1364094474522355  0.20775154528877748  0.6487764647387628  1.0000
  H   H14       1.0  0.8785814955864014  0.6229382865974977  0.25981578380374715  1.0000
  H   H15       1.0  0.02968275548311982  0.4043773045098069  0.18945099153435674  1.0000
  H   H16       1.0  0.13015295924839831  0.2836909550662814  0.070423630515841  1.0000
  H   H17       1.0  0.016291097142161478  0.377899705948313  0.6590636573927631  1.0000
  H   H18       1.0  0.8363254885234747  0.5246087205529872  0.5547392513922089  1.0000
  H   H19       1.0  0.302635952567212  0.08657705976094855  0.7745877192550075  1.0000
  H   H20       1.0  0.21799474058359383  0.09703040450868007  0.5311020057505313  1.0000
  H   H21       1.0  0.09130481606162856  0.22632880210800166  0.5726006951122584  1.0000
  Zn  Zn1       1.0  0.8747496558468492  0.455570366509539  0.41705317540979037  1.0000
  Zn  Zn2       1.0  0.04944809330960864  0.45986981794315707  0.4188696661959068  1.0000
  C   C29       1.0  0.9612461896582507  0.4504571860987996  0.6815703189310518  1.0000
  C   C30       1.0  0.9629534663746564  0.46498468308514274  0.15435268415741096  1.0000
  C   C31       1.0  0.9620644090683671  0.694999233471582  0.412208258341499  1.0000
  C   C32       1.0  0.9621351874500056  0.22044107306233296  0.4237148210893038  1.0000
  O   O2        1.0  0.029074311778302553  0.467921502721373  0.20881599772700787  1.0000
  O   O3        1.0  0.02771741760940971  0.4507825740177185  0.6284852643693006  1.0000
  O   O4        1.0  0.02837724154103704  0.6482533360413538  0.4109734853575411  1.0000
  O   O5        1.0  0.02841442858322085  0.2704507493799204  0.4263276679008121  1.0000
  O   O6        1.0  0.8957832609572584  0.6449894336070581  0.4095951730774141  1.0000
  O   O7        1.0  0.8951234369241866  0.4475202327677321  0.6271068751193634  1.0000
  O   O8        1.0  0.8964803367902022  0.46465912995823944  0.2074358732042294  1.0000
  O   O9        1.0  0.8958204532425967  0.2671883664688866  0.4249476515885182  1.0000
