data_image0
_chemical_formula_structural       NC10NC2SCH8C7ONC2H11C7OIH4Zn2C4O8
_chemical_formula_sum              "N3 C33 S1 H23 O10 I1 Zn2"
_cell_length_a       19.276177435061857
_cell_length_b       10.299288639353465
_cell_length_c       10.297413674417344
_cell_angle_alpha    85.56151677804391
_cell_angle_beta     90.23955368145704
_cell_angle_gamma    89.86719266158745

_space_group_name_H-M_alt    "P 1"
_space_group_IT_number       1

loop_
  _space_group_symop_operation_xyz
  'x, y, z'

loop_
  _atom_site_type_symbol
  _atom_site_label
  _atom_site_symmetry_multiplicity
  _atom_site_fract_x
  _atom_site_fract_y
  _atom_site_fract_z
  _atom_site_occupancy
  N   N1        1.0  0.6527855676226291  0.41873813123715165  0.5724101640958768  1.0000
  C   C1        1.0  0.5928024017291167  0.4195912171130489  0.5765294064881343  1.0000
  C   C2        1.0  0.5181069463583889  0.4207131953963366  0.5816637743500306  1.0000
  C   C3        1.0  0.48323657766026235  0.3078149428398842  0.5914737845988693  1.0000
  C   C4        1.0  0.40674695772445657  0.3034838346958366  0.5989196469241207  1.0000
  C   C5        1.0  0.3690347375127089  0.4057487810343179  0.6321074220571452  1.0000
  C   C6        1.0  0.2922249615583962  0.40704611433135995  0.6197493589576542  1.0000
  C   C7        1.0  0.2589902376979167  0.3507659048439755  0.5157796183164887  1.0000
  C   C8        1.0  0.1866882846065093  0.3533838532923702  0.5044391834357183  1.0000
  C   C9        1.0  0.1465924723268593  0.41243615549987933  0.5964183815658024  1.0000
  C   C10       1.0  0.07215469745156941  0.41507980145774226  0.584636699583114  1.0000
  N   N2        1.0  0.0123122829471669  0.4172050328326424  0.5751651347594383  1.0000
  C   C11       1.0  0.1790810347057135  0.469167832496975  0.6997246922344897  1.0000
  C   C12       1.0  0.2513822927693266  0.46676993829931845  0.7112298235291881  1.0000
  S   S1        1.0  0.41243210767853383  0.5426125649544276  0.6966585370646459  1.0000
  C   C13       1.0  0.47999276380819667  0.5487491097941848  0.5735034379895683  1.0000
  H   H1        1.0  0.5110700681165085  0.21633176335967552  0.5904492381444213  1.0000
  H   H2        1.0  0.3813657196172528  0.21549940718283955  0.5726838824470539  1.0000
  H   H3        1.0  0.2888680668961733  0.30639096740050165  0.4421160845064975  1.0000
  H   H4        1.0  0.16209711249578382  0.3097728386967591  0.42365502555202794  1.0000
  H   H5        1.0  0.1485348351806925  0.515130037102294  0.771526312922494  1.0000
  H   H6        1.0  0.2751885873366702  0.5103190756867699  0.7927084263886113  1.0000
  H   H7        1.0  0.45617950387571865  0.5672927787181856  0.47534511682883757  1.0000
  H   H8        1.0  0.5158713284736833  0.630093771608323  0.5902621894160276  1.0000
  C   C14       1.0  0.8326188627488439  0.0365919872881213  0.5737359994894817  1.0000
  C   C15       1.0  0.8100865353550367  0.04581150953764812  0.44345150834049774  1.0000
  C   C16       1.0  0.7991273017332751  0.9333075816758312  0.37718488960267604  1.0000
  C   C17       1.0  0.8099413069600141  0.8105356861291702  0.44361160552855927  1.0000
  C   C18       1.0  0.8324856533287692  0.7993411660737905  0.5738506115966562  1.0000
  C   C19       1.0  0.8438525874794582  0.9129434002900568  0.6380880908463717  1.0000
  C   C20       1.0  0.7751035393150906  0.9426115627074376  0.23972910593107216  1.0000
  O   O1        1.0  0.7416190596752029  0.8492829319751433  0.19773888517829327  1.0000
  N   N3        1.0  0.7901186169764336  0.05510071707510478  0.1532558598808864  1.0000
  C   C21       1.0  0.7596037008593002  0.07147534289800839  0.02268213876365798  1.0000
  C   C22       1.0  0.7837019632600438  0.19809658011200584  0.9503570629881959  1.0000
  H   H9        1.0  0.8406625313170663  0.36052073797631357  0.6239057743277862  1.0000
  H   H10       1.0  0.7998088306763598  0.1407772996660468  0.3946666687251632  1.0000
  H   H11       1.0  0.8013459944547205  0.7234943508202593  0.3931141338264399  1.0000
  H   H12       1.0  0.8612491712589553  0.9050978657442617  0.7385574931451322  1.0000
  H   H13       1.0  0.840502207157741  0.46758803875688676  0.623876053418716  1.0000
  H   H14       1.0  0.8252764128924411  0.12434590192214334  0.1824318785603949  1.0000
  H   H15       1.0  0.7021238742306978  0.07310187150547276  0.03046568112526859  1.0000
  H   H16       1.0  0.7750752859197817  0.9883536609708954  0.9663616306088508  1.0000
  H   H17       1.0  0.7680263850624528  0.2825272252153428  0.004524659950220888  1.0000
  H   H18       1.0  0.8410218683973937  0.19750673085990192  0.9397712160957566  1.0000
  H   H19       1.0  0.7596733323433925  0.20843053439238782  0.8518979525983053  1.0000
  C   C23       1.0  0.8324980411466849  0.41801920080360216  0.19234046810656855  1.0000
  C   C24       1.0  0.7676573341363011  0.4808512606876414  0.18578200743144735  1.0000
  C   C25       1.0  0.7347257665262724  0.5127625762357502  0.06533576260502261  1.0000
  C   C26       1.0  0.767782342726746  0.48072998525597344  0.950595113681186  1.0000
  C   C27       1.0  0.8326064904109486  0.417913924699349  0.9552461882169261  1.0000
  C   C28       1.0  0.8645672480737336  0.38694333566207395  0.07657643118026101  1.0000
  C   C29       1.0  0.6661588825190333  0.579205254733046  0.06093920024299382  1.0000
  O   O2        1.0  0.6374619445843684  0.6070125636387023  0.1649874645539455  1.0000
  I   I1        1.0  0.6120153724329037  0.6316725036519659  0.8850815967236803  1.0000
  H   H20       1.0  0.9549225607503782  0.2993861429373905  0.4119374658135901  1.0000
  H   H21       1.0  0.7427399277477921  0.5049968401322511  0.2749067040683433  1.0000
  H   H22       1.0  0.74336281378343  0.5043927827143206  0.8571049169480112  1.0000
  H   H23       1.0  0.9145492813413958  0.3385096907105909  0.08082502474729635  1.0000
  Zn  Zn1       1.0  0.7565372230337244  0.4182922355975103  0.5732126967533585  1.0000
  Zn  Zn2       1.0  0.9085606522224572  0.4176403047892604  0.5743732643013545  1.0000
  C   C30       1.0  0.8325853347506175  0.4127600165030781  0.8110398436060683  1.0000
  C   C31       1.0  0.8325142003286254  0.4231741554124126  0.33654625786273185  1.0000
  C   C32       1.0  0.8325065274304696  0.6551660509114616  0.5686526081042488  1.0000
  C   C33       1.0  0.8325929560561476  0.18076656087074852  0.5789335619879401  1.0000
  O   O3        1.0  0.8902117235875678  0.42465113502630447  0.38538346672581847  1.0000
  O   O4        1.0  0.8902700767811745  0.41078725679208894  0.7630831045826879  1.0000
  O   O5        1.0  0.8902056613483876  0.6065331983683411  0.5673536912506885  1.0000
  O   O6        1.0  0.8902760871295906  0.2289052029764329  0.5811127822670947  1.0000
  O   O7        1.0  0.7748217362484542  0.6070273376342239  0.5664731783847409  1.0000
  O   O8        1.0  0.7748861513957305  0.4112829564151396  0.7622025226904743  1.0000
  O   O9        1.0  0.7748277980341893  0.42514678960741525  0.3845013230828784  1.0000
  O   O10       1.0  0.7748921615888396  0.22940084825505025  0.5802307360120006  1.0000
