data_image0
_chemical_formula_structural       NC9NC3OH6C6NCOH7C6NH7Zn2C4O8
_chemical_formula_sum              "N4 C29 O10 H20 Zn2"
_cell_length_a       15.78231758774541
_cell_length_b       10.299619329790078
_cell_length_c       9.274774538082514
_cell_angle_alpha    85.06936260205661
_cell_angle_beta     90.43038941912484
_cell_angle_gamma    89.65730562172187

_space_group_name_H-M_alt    "P 1"
_space_group_IT_number       1

loop_
  _space_group_symop_operation_xyz
  'x, y, z'

loop_
  _atom_site_type_symbol
  _atom_site_label
  _atom_site_symmetry_multiplicity
  _atom_site_fract_x
  _atom_site_fract_y
  _atom_site_fract_z
  _atom_site_occupancy
  N   N1        1.0  0.7925767391917024  0.42577727347056604  0.410892605229525  1.0000
  C   C1        1.0  0.7441174038730419  0.3435034764841567  0.43764310883564067  1.0000
  C   C2        1.0  0.6839533188710135  0.24138169290447298  0.4708473754728655  1.0000
  C   C3        1.0  0.7037289499812834  0.11310097088392347  0.5124690360985868  1.0000
  C   C4        1.0  0.6270534526988606  0.0509304590213522  0.5327233718213531  1.0000
  C   C5        1.0  0.565189299210082  0.14587251372236001  0.5019644546946818  1.0000
  C   C6        1.0  0.472114121744865  0.12831837593370676  0.5077532893923966  1.0000
  C   C7        1.0  0.4182737034532326  0.23594853911021718  0.47270079937813  1.0000
  C   C8        1.0  0.33008020512017133  0.22155450431948376  0.4774554628259118  1.0000
  C   C9        1.0  0.275540483277167  0.33231629508074706  0.44137393806483355  1.0000
  N   N2        1.0  0.23170344920670713  0.42135449590411317  0.4123676164449017  1.0000
  C   C10       1.0  0.29504598782118047  0.09937009617495039  0.5173170450694027  1.0000
  C   C11       1.0  0.3479552939452223  0.9919624172119633  0.5523019071442898  1.0000
  C   C12       1.0  0.4359634817431716  0.0059610359069468604  0.5476764484544783  1.0000
  O   O1        1.0  0.6015483739702076  0.25839204250896053  0.46540283210459904  1.0000
  H   H1        1.0  0.7662272763641407  0.06984055433367709  0.526448843288227  1.0000
  H   H2        1.0  0.6184114493153097  0.9487067687964698  0.5659075005479446  1.0000
  H   H3        1.0  0.4447947554247295  0.3310297150337678  0.44167617318357144  1.0000
  H   H4        1.0  0.2269406881771547  0.08717911528624024  0.5213416390747205  1.0000
  H   H5        1.0  0.32070335084704343  0.8975312618455545  0.5831149036404188  1.0000
  H   H6        1.0  0.4751253028382462  0.920886517974917  0.5753960911932001  1.0000
  C   C13       1.0  0.012031617660611442  0.042198793932066485  0.41159216646632046  1.0000
  C   C14       1.0  0.9706782285851918  0.05176536501991414  0.2763785851121543  1.0000
  C   C15       1.0  0.9511016876874475  0.9398525126880417  0.20725347835601493  1.0000
  C   C16       1.0  0.9709309680475731  0.8166034915075631  0.2764905362668162  1.0000
  C   C17       1.0  0.012256666190263886  0.8049228535081817  0.41168057422780735  1.0000
  C   C18       1.0  0.03287246105994068  0.9183484825147366  0.4781953872080052  1.0000
  N   N3        1.0  0.9076124562256842  0.9534443188860157  0.06989712897422384  1.0000
  C   C19       1.0  0.9205281760650598  0.8695258131846205  0.9563829240701063  1.0000
  O   O2        1.0  0.9800364320821937  0.7871545093729977  0.9626500658449658  1.0000
  H   H7        1.0  0.0892342335581246  0.2313575524541241  0.6673565964974892  1.0000
  H   H8        1.0  0.9540684975874674  0.1464493808327241  0.22342637776194607  1.0000
  H   H9        1.0  0.9526331763511252  0.7297856284313133  0.22650627809459678  1.0000
  H   H10       1.0  0.06476126044543484  0.9100981512580872  0.5824219600052609  1.0000
  H   H11       1.0  0.026986158829404017  0.4729241572583809  0.4645897676080988  1.0000
  H   H12       1.0  0.8683079769953724  0.034624896882635474  0.0463909465661163  1.0000
  H   H13       1.0  0.8799637073201291  0.879547603136183  0.8614733230676888  1.0000
  C   C20       1.0  0.010624476398952254  0.4268977002616257  0.9878153172555789  1.0000
  C   C21       1.0  0.07068738543954578  0.5029307963670968  0.05476237486546376  1.0000
  C   C22       1.0  0.13454852369504489  0.5682278083310719  0.9742195351386922  1.0000
  C   C23       1.0  0.13886390183648878  0.5577855782283914  0.825255420282629  1.0000
  C   C24       1.0  0.07907368648783897  0.48461061477219003  0.7566070447038586  1.0000
  C   C25       1.0  0.013663830663297453  0.4202238799389144  0.8354573893616264  1.0000
  N   N4        1.0  0.19558412216629734  0.644070432003276  0.04417508429810635  1.0000
  H   H14       1.0  0.8838941969320582  0.17430342690320066  0.11328079512452892  1.0000
  H   H15       1.0  0.0691639646768325  0.5091054615530022  0.1707780947606583  1.0000
  H   H16       1.0  0.18816928125052232  0.6074650850490093  0.7618960247930624  1.0000
  H   H17       1.0  0.08285103759166956  0.4809601175016714  0.6404462678989624  1.0000
  H   H18       1.0  0.9257053842120717  0.25407253418796216  0.5690609768212047  1.0000
  H   H19       1.0  0.19312596579112917  0.6522392153094096  0.1555376860428499  1.0000
  H   H20       1.0  0.24366619283385113  0.6927409952062678  0.9851001471751841  1.0000
  Zn  Zn1       1.0  0.9192992472342237  0.42449742087655773  0.4113265888049078  1.0000
  Zn  Zn2       1.0  0.10498095184763608  0.4226236561903578  0.4119454297172205  1.0000
  C   C26       1.0  0.0130859154824947  0.41631176919749874  0.6752342836458582  1.0000
  C   C27       1.0  0.011196312229287965  0.43081092490403844  0.1480378834792513  1.0000
  C   C28       1.0  0.01218916874863351  0.6607970695527514  0.40591257673175263  1.0000
  C   C29       1.0  0.01209299541842234  0.18632406428758297  0.4173596669473352  1.0000
  O   O3        1.0  0.0818534630982386  0.43140748919553296  0.20204488659975595  1.0000
  O   O4        1.0  0.08335688025412025  0.41429208441861554  0.621696550884528  1.0000
  O   O5        1.0  0.08263180140149173  0.6117170541643291  0.40421736404619835  1.0000
  O   O6        1.0  0.08257847820500142  0.23398253023139093  0.4195239650140534  1.0000
  O   O7        1.0  0.9417016575127782  0.6131385474764224  0.40374805328930274  1.0000
  O   O8        1.0  0.9424267365460539  0.41571513863280957  0.6212271633548831  1.0000
  O   O9        1.0  0.9409233132112944  0.4328305118153264  0.20157376385687997  1.0000
  O   O10       1.0  0.941648328699843  0.23540554271051084  0.4190529504764382  1.0000
