data_image0
_chemical_formula_structural       NC9NC3OH6C6NO2H5C7F3H4Zn2C4O8
_chemical_formula_sum              "N3 C29 O11 H15 F3 Zn2"
_cell_length_a       15.78231758774541
_cell_length_b       9.273392599741051
_cell_length_c       9.272721663655245
_cell_angle_alpha    86.00529282621046
_cell_angle_beta     90.60221336655935
_cell_angle_gamma    89.0365174922554

_space_group_name_H-M_alt    "P 1"
_space_group_IT_number       1

loop_
  _space_group_symop_operation_xyz
  'x, y, z'

loop_
  _atom_site_type_symbol
  _atom_site_label
  _atom_site_symmetry_multiplicity
  _atom_site_fract_x
  _atom_site_fract_y
  _atom_site_fract_z
  _atom_site_occupancy
  N   N1        1.0  0.7799492118481197  0.5609526400919127  0.4154503160101637  1.0000
  C   C1        1.0  0.7321136279312334  0.46995599772937213  0.44199265254626413  1.0000
  C   C2        1.0  0.6727237706858792  0.3570070479505951  0.4749385329143785  1.0000
  C   C3        1.0  0.693471809167472  0.21512448367555995  0.516235694820655  1.0000
  C   C4        1.0  0.6172677169969599  0.1463630913415377  0.5363326943427458  1.0000
  C   C5        1.0  0.5546839474156616  0.2513726777424646  0.5058139038613916  1.0000
  C   C6        1.0  0.46174198636830677  0.23195856705570095  0.5115582549022586  1.0000
  C   C7        1.0  0.4070854865904086  0.35099909375699184  0.4767781366353682  1.0000
  C   C8        1.0  0.31900123582290735  0.33508003189295277  0.48149631769120455  1.0000
  C   C9        1.0  0.2636216728666614  0.4575840544244989  0.4456950973746913  1.0000
  N   N2        1.0  0.21910951250455868  0.556061475557722  0.41691410559743614  1.0000
  C   C10       1.0  0.28489356597156684  0.1999432805346897  0.5210486384617301  1.0000
  C   C11       1.0  0.33861727444703055  0.08114889321874251  0.5557616877361669  1.0000
  C   C12       1.0  0.4265192135235037  0.09663062519942846  0.5511717104269224  1.0000
  O   O1        1.0  0.5901900025937963  0.37582209603617756  0.469536955923064  1.0000
  H   H1        1.0  0.7562979717778034  0.1672762844377824  0.5301061181138038  1.0000
  H   H2        1.0  0.609400627913501  0.03330067380709867  0.5692582239341559  1.0000
  H   H3        1.0  0.4328855115897554  0.4561594193725267  0.44599417522652635  1.0000
  H   H4        1.0  0.21688078939694233  0.18646064951151886  0.5250423358103189  1.0000
  H   H5        1.0  0.31208142979299885  0.976707500735567  0.5863356643501572  1.0000
  H   H6        1.0  0.46632611395308604  0.002537154613479803  0.5786760503824859  1.0000
  C   C13       1.0  0.0021118250126754847  0.13494462879971  0.41528406002901685  1.0000
  C   C14       1.0  0.9906276484542541  0.2176793477376016  0.28352576393619455  1.0000
  C   C15       1.0  0.9716904150334184  0.15208175818668535  0.15652216625667936  1.0000
  C   C16       1.0  0.9636139323619237  0.0017626259199161637  0.15773394535271623  1.0000
  C   C17       1.0  0.9764146334967531  0.9178392300552669  0.28849111332888655  1.0000
  C   C18       1.0  0.9969551195400915  0.9820583523865666  0.41709278519713666  1.0000
  N   N3        1.0  0.9433358549499178  0.9347388047473808  0.02649773264958943  1.0000
  O   O2        1.0  0.931543487341926  0.01724947801278032  0.8984429948598525  1.0000
  O   O3        1.0  0.9358748999043427  0.800889942864681  0.026703065985270058  1.0000
  H   H7        1.0  0.9867169369157399  0.2135836867577661  0.7691366714310071  1.0000
  H   H8        1.0  0.9943096910842097  0.33445679161495456  0.27927779025288046  1.0000
  H   H9        1.0  0.9625104510900662  0.21954472608074926  0.05738722601798907  1.0000
  H   H10       1.0  0.9723270335615153  0.8012883704156557  0.289503908339247  1.0000
  H   H11       1.0  0.9894815883843258  0.6853997692902163  0.6562505552034048  1.0000
  C   C19       1.0  0.9973056252516043  0.5561870465992047  0.9927327445644258  1.0000
  C   C20       1.0  0.0340891710046487  0.43780786447840314  0.07532338708247366  1.0000
  C   C21       1.0  0.07824768372770285  0.32792548449804615  0.009329760996950268  1.0000
  C   C22       1.0  0.08303813458110926  0.3345136395128505  0.8582102259646014  1.0000
  C   C23       1.0  0.04577065572186198  0.4498953769894412  0.774643195450416  1.0000
  C   C24       1.0  0.0017613368570483813  0.5608159900332135  0.8396441092692322  1.0000
  C   C25       1.0  0.1152897827122516  0.20000497114207041  0.09952572071859066  1.0000
  F   F1        1.0  0.14357233520167656  0.24160782207083087  0.2319432990853871  1.0000
  F   F2        1.0  0.18320017949095435  0.1395921882549851  0.030503560580698478  1.0000
  F   F3        1.0  0.053708984320856024  0.09687593672282002  0.12213238556130034  1.0000
  H   H12       1.0  0.029889147810158362  0.43273068855345187  0.19214397605672207  1.0000
  H   H13       1.0  0.11487489230936293  0.24943502640130635  0.8042258473223667  1.0000
  H   H14       1.0  0.049399032581531  0.45031624625076844  0.6580016661505662  1.0000
  H   H15       1.0  0.8482116529480159  0.8057875890368309  0.718365845531185  1.0000
  Zn  Zn1       1.0  0.9066814518158072  0.5595373483649078  0.41588104626298983  1.0000
  Zn  Zn2       1.0  0.09237737772337029  0.5574650595494082  0.4164951381143276  1.0000
  C   C26       1.0  0.0009521828885361589  0.5541949451633048  0.6795474690243932  1.0000
  C   C27       1.0  0.9981086641104973  0.5628092608067692  0.15282886747794233  1.0000
  C   C28       1.0  0.9978952513390874  0.8219044952756043  0.41100461916022346  1.0000
  C   C29       1.0  0.0011655432483885818  0.2950979788920389  0.42137179031202354  1.0000
  O   O4        1.0  0.06884884571223066  0.5642390210018702  0.20679162004516805  1.0000
  O   O5        1.0  0.07115091677928165  0.5511912753218855  0.6260503805372615  1.0000
  O   O6        1.0  0.06868146380357398  0.7673701414834966  0.40920012934740324  1.0000
  O   O7        1.0  0.07131823469085313  0.34806016527450523  0.42364176292685274  1.0000
  O   O8        1.0  0.9277405314793684  0.7689422433485098  0.40873442123332326  1.0000
  O   O9        1.0  0.930209973497679  0.5527651096980282  0.6255845992361297  1.0000
  O   O10       1.0  0.9279078936717092  0.565812795638569  0.20632410492451767  1.0000
  O   O11       1.0  0.9303772832784617  0.349633930185657  0.42317435589723584  1.0000
