data_image0
_chemical_formula_structural       NC9NC3OH6C8H6C7ONH7Zn2C4O8
_chemical_formula_sum              "N3 C31 O10 H19 Zn2"
_cell_length_a       15.78231758774541
_cell_length_b       9.27514070457351
_cell_length_c       10.297855452804892
_cell_angle_alpha    85.67857769171053
_cell_angle_beta     90.0760746706638
_cell_angle_gamma    90.22379856908987

_space_group_name_H-M_alt    "P 1"
_space_group_IT_number       1

loop_
  _space_group_symop_operation_xyz
  'x, y, z'

loop_
  _atom_site_type_symbol
  _atom_site_label
  _atom_site_symmetry_multiplicity
  _atom_site_fract_x
  _atom_site_fract_y
  _atom_site_fract_z
  _atom_site_occupancy
  N   N1        1.0  0.8075237256087803  0.569609197009419  0.5730616788941332  1.0000
  C   C1        1.0  0.7584366906182972  0.47848981978792304  0.5969475204831889  1.0000
  C   C2        1.0  0.6974934763198747  0.3653885239581467  0.626596006304208  1.0000
  C   C3        1.0  0.7162907190128545  0.22331510018312106  0.6637598575701245  1.0000
  C   C4        1.0  0.6391407526647779  0.15446072948080097  0.681845479926593  1.0000
  C   C5        1.0  0.5780005503949681  0.2596113077588891  0.6543812646771281  1.0000
  C   C6        1.0  0.48479115153692326  0.24017053851720815  0.6595507618912233  1.0000
  C   C7        1.0  0.4317720950714121  0.35937196059487264  0.628251568472467  1.0000
  C   C8        1.0  0.3434685092397543  0.3434309932137134  0.6324975943040241  1.0000
  C   C9        1.0  0.2897740807691596  0.4661006455933776  0.6002794866289249  1.0000
  N   N2        1.0  0.2466165587581845  0.5647112200518283  0.5743789969747108  1.0000
  C   C10       1.0  0.3075016118557969  0.2081111883989173  0.6680914302877918  1.0000
  C   C11       1.0  0.3595912365443806  0.08915621027755849  0.6993302714229885  1.0000
  C   C12       1.0  0.4477064927427499  0.10465925419134803  0.69519961859668  1.0000
  O   O1        1.0  0.6152179985246653  0.3842284477485313  0.6217351221523333  1.0000
  H   H1        1.0  0.7784593048956853  0.17540286393376706  0.676241982159522  1.0000
  H   H2        1.0  0.629719035093546  0.04124612292149776  0.7114756054646951  1.0000
  H   H3        1.0  0.4590189567636465  0.46467476468204777  0.6005485302855431  1.0000
  H   H4        1.0  0.23930308246920573  0.19461001821831614  0.6716854705346211  1.0000
  H   H5        1.0  0.3316184440115664  0.9845733106500062  0.726844340939161  1.0000
  H   H6        1.0  0.4862190348042071  0.01043853121849669  0.7199512321790598  1.0000
  C   C13       1.0  0.024500493403647225  0.14374843675497573  0.5728042348419569  1.0000
  C   C14       1.0  0.0366095721980908  0.22709390203939472  0.45435349325945595  1.0000
  C   C15       1.0  0.0561070012789715  0.16159894893443472  0.34058035202473214  1.0000
  C   C16       1.0  0.06396172648048476  0.011580610043291143  0.34307324105187154  1.0000
  C   C17       1.0  0.05076772563925758  0.9266671023581123  0.4593919234862449  1.0000
  C   C18       1.0  0.0296477856224333  0.9905608127018987  0.574647689434997  1.0000
  C   C19       1.0  0.08461541596600436  0.9443230474150851  0.2256728784536894  1.0000
  C   C20       1.0  0.10190842515762788  0.8879963472656205  0.1273836019976209  1.0000
  H   H7        1.0  0.038329707691143716  0.2199953560834594  0.8920060921606195  1.0000
  H   H8        1.0  0.03296671067096346  0.34396070881841634  0.45036403776313105  1.0000
  H   H9        1.0  0.0658862450471957  0.22826008848808477  0.25081405827865133  1.0000
  H   H10       1.0  0.055038795740889324  0.8100122805507094  0.4592442798150309  1.0000
  H   H11       1.0  0.0357070062331519  0.6918968035295341  0.7897032130312812  1.0000
  H   H12       1.0  0.11708797575196378  0.8385516398912097  0.04110625806337653  1.0000
  C   C21       1.0  0.02710825757690193  0.5672975842351198  0.19228434668767558  1.0000
  C   C22       1.0  0.9406551978499532  0.6030246100321281  0.1887108980085057  1.0000
  C   C23       1.0  0.8966118289409222  0.61990570685787  0.06989738473056706  1.0000
  C   C24       1.0  0.9405502074225928  0.602701408202965  0.953476970304867  1.0000
  C   C25       1.0  0.027040032447662943  0.5670116199956593  0.9551675284104122  1.0000
  C   C26       1.0  0.06969965857082472  0.5492112620659153  0.07502957571610325  1.0000
  C   C27       1.0  0.8053658692960645  0.6579822567478933  0.06869967106675667  1.0000
  O   O2        1.0  0.7743873261789977  0.7198560261787952  0.162549067014359  1.0000
  N   N3        1.0  0.7509686198339388  0.624492042603078  0.9638388414453445  1.0000
  H   H13       1.0  0.19057431989739326  0.5002895534341976  0.4062713773921611  1.0000
  H   H14       1.0  0.9072356563913417  0.6165438911538599  0.27879671894728264  1.0000
  H   H15       1.0  0.9081055322834811  0.6196902565458124  0.8610243086109031  1.0000
  H   H16       1.0  0.13632933144901993  0.5216724648811387  0.0770302565957739  1.0000
  H   H17       1.0  0.19083901540280857  0.5018245327871149  0.7509341399759415  1.0000
  H   H18       1.0  0.687908991533709  0.6582247176828915  0.9626345531677791  1.0000
  H   H19       1.0  0.7707057283465308  0.5584882832007279  0.8920684035517011  1.0000
  Zn  Zn1       1.0  0.9342364046025848  0.568191892449365  0.5734493149471325  1.0000
  Zn  Zn2       1.0  0.11990377879113674  0.5661167526566036  0.5740019536465237  1.0000
  C   C28       1.0  0.027016130214337228  0.5613216952826008  0.8109537750626652  1.0000
  C   C29       1.0  0.027126091708256514  0.5729887463791581  0.33649763101688035  1.0000
  C   C30       1.0  0.02867095655369977  0.830497235326629  0.5691230396914977  1.0000
  C   C31       1.0  0.025471191477611572  0.30381147470405634  0.5783284316802326  1.0000
  O   O3        1.0  0.09759183966097401  0.5741049573042123  0.385106636455282  1.0000
  O   O4        1.0  0.09746761664184947  0.558629413681526  0.7627638333247548  1.0000
  O   O5        1.0  0.09880295988643106  0.7759920765661374  0.567483803956397  1.0000
  O   O6        1.0  0.0962564331320987  0.35674230547860075  0.580386568264289  1.0000
  O   O7        1.0  0.9578836869024697  0.7775663403370836  0.5670647001339499  1.0000
  O   O8        1.0  0.9565483541900185  0.5602054097932618  0.7623446640147062  1.0000
  O   O9        1.0  0.9566725770997244  0.5756809037555597  0.38468590533775204  1.0000
  O   O10       1.0  0.9553371704959901  0.35831824158066394  0.5799659345106936  1.0000
