data_image0
_chemical_formula_structural       NC8O2C5NC2H8C14H10C7ClCClC6H10Zn2C4O8
_chemical_formula_sum              "N2 C47 O10 H28 Cl2 Zn2"
_cell_length_a       21.348045465568166
_cell_length_b       17.567807274406363
_cell_length_c       17.254899562796247
_cell_angle_alpha    86.32875423824233
_cell_angle_beta     90.75292556116842
_cell_angle_gamma    90.53711657685788

_space_group_name_H-M_alt    "P 1"
_space_group_IT_number       1

loop_
  _space_group_symop_operation_xyz
  'x, y, z'

loop_
  _atom_site_type_symbol
  _atom_site_label
  _atom_site_symmetry_multiplicity
  _atom_site_fract_x
  _atom_site_fract_y
  _atom_site_fract_z
  _atom_site_occupancy
  N   N1        1.0  0.584896414727302  0.828682872059037  0.1498276915202468  1.0000
  C   C1        1.0  0.5313772348578978  0.8244536541545829  0.13918738737525252  1.0000
  C   C2        1.0  0.4648046190599175  0.8191929404448737  0.12595204648895586  1.0000
  C   C3        1.0  0.44004240317979104  0.7623585537324241  0.08093239475880087  1.0000
  C   C4        1.0  0.3753807478391188  0.7571894467068502  0.06804131332440089  1.0000
  C   C5        1.0  0.33463927148239475  0.8089507858856582  0.10007593210980581  1.0000
  C   C6        1.0  0.3599699791336329  0.865835491262382  0.14528152201116262  1.0000
  C   C7        1.0  0.4246499438515768  0.8708834479131097  0.15808699393094905  1.0000
  C   C8        1.0  0.2661651098111517  0.8037325627019655  0.08673490318848909  1.0000
  O   O1        1.0  0.24387810848316863  0.7534130286744857  0.044954262786486406  1.0000
  O   O2        1.0  0.22665244427586484  0.8569083854203133  0.11801045124544496  1.0000
  C   C9        1.0  0.16140832853900763  0.8496193668459794  0.12451197777033819  1.0000
  C   C10       1.0  0.1311356590853345  0.7781716989007417  0.13436354481543866  1.0000
  C   C11       1.0  0.0659798298697952  0.773814997918707  0.14130578570425323  1.0000
  C   C12       1.0  0.030516822795459312  0.8405752867034414  0.13909541111846047  1.0000
  C   C13       1.0  0.9634644246160857  0.8360474469993658  0.14631390286135026  1.0000
  N   N2        1.0  0.9095586628586162  0.832407042389417  0.15211684843843754  1.0000
  C   C14       1.0  0.0605188826157575  0.9117594011446707  0.13044400475770612  1.0000
  C   C15       1.0  0.12566312957668524  0.9161149007100431  0.12356795474041561  1.0000
  H   H1        1.0  0.47069866026215845  0.722024386900502  0.05579847493527736  1.0000
  H   H2        1.0  0.3573405676123098  0.712698895773035  0.033044636095141196  1.0000
  H   H3        1.0  0.3298879642668346  0.9064699401672995  0.17081100588510614  1.0000
  H   H4        1.0  0.4433188873725913  0.9150906047745042  0.19305785120572672  1.0000
  H   H5        1.0  0.1576509539403514  0.7258994616287382  0.13848502537314344  1.0000
  H   H6        1.0  0.04332485680009931  0.7184403132789384  0.14890576172625972  1.0000
  H   H7        1.0  0.0336128125855374  0.9638244088535373  0.1291052589411804  1.0000
  H   H8        1.0  0.14848266677995972  0.9714074646978177  0.11699566883766867  1.0000
  C   C16       1.0  0.7473043472453011  0.6069556854421796  0.15098308988280895  1.0000
  C   C17       1.0  0.6991200006521252  0.568138282897973  0.11305589518960424  1.0000
  C   C18       1.0  0.6992214983917113  0.4885425511591034  0.11302533976807683  1.0000
  C   C19       1.0  0.7474093592372292  0.4467777035033355  0.15088203365449282  1.0000
  C   C20       1.0  0.7955720251291638  0.4848971470239658  0.18877675001367433  1.0000
  C   C21       1.0  0.795586331923986  0.5644892196222238  0.18885868828097144  1.0000
  C   C22       1.0  0.7473982838483054  0.36486045477953655  0.1509056038865383  1.0000
  C   C23       1.0  0.747358475048265  0.29623425412120596  0.1509350346265489  1.0000
  C   C24       1.0  0.7472836459332863  0.21431596380781304  0.15096768213801115  1.0000
  C   C25       1.0  0.8039677090235103  0.17485173633414744  0.15236767904833462  1.0000
  C   C26       1.0  0.8039531642721606  0.09525219783772267  0.15235294144118683  1.0000
  C   C27       1.0  0.7471567696565968  0.05412849535462391  0.1509681849820509  1.0000
  C   C28       1.0  0.6903860352934149  0.09429241944485992  0.14959262273206253  1.0000
  C   C29       1.0  0.6905252915344896  0.17389039248920354  0.14959167797966205  1.0000
  H   H9        1.0  0.6985737810410623  0.79040464732341  0.11265895433821249  1.0000
  H   H10       1.0  0.6613314602447753  0.5991851317350723  0.08340160646863715  1.0000
  H   H11       1.0  0.6617290163932389  0.4595909928710644  0.08348887080223266  1.0000
  H   H12       1.0  0.8330829162266762  0.45310962672798394  0.21828423816492726  1.0000
  H   H13       1.0  0.8333515918734042  0.5927153150275426  0.21856355108636538  1.0000
  H   H14       1.0  0.8481670640842615  0.20559871354698966  0.15344421941463038  1.0000
  H   H15       1.0  0.8483945565716663  0.06600643739547701  0.15340950382261276  1.0000
  H   H16       1.0  0.6459016524117935  0.06426078621085422  0.14853931842852608  1.0000
  H   H17       1.0  0.6463928496190405  0.20388141218662426  0.14853846571818888  1.0000
  H   H18       1.0  0.8043104647037712  0.8730216585311802  0.15209607609999376  1.0000
  C   C30       1.0  0.7459741185185018  0.8275186165942204  0.9235366696455889  1.0000
  C   C31       1.0  0.774653851221278  0.7656930881425995  0.8906046134974135  1.0000
  C   C32       1.0  0.771596454033495  0.7583862374870507  0.8104415373414053  1.0000
  C   C33       1.0  0.7404082280979801  0.8130367674074279  0.7617602094272482  1.0000
  C   C34       1.0  0.7109770885982378  0.8742356750620939  0.7945170183260268  1.0000
  C   C35       1.0  0.7139832603499385  0.8816216310850937  0.8746636349029289  1.0000
  C   C36       1.0  0.7363444257393934  0.8037047163321913  0.6773527166509545  1.0000
  Cl  Cl1       1.0  0.6995597911599477  0.7194965596211474  0.6484656854579693  1.0000
  C   C37       1.0  0.7581496443991054  0.8573148378433012  0.6246075259031747  1.0000
  Cl  Cl2       1.0  0.7949342789785511  0.9415229945543455  0.6534945570961603  1.0000
  C   C38       1.0  0.7540849983083722  0.8479834639617606  0.540199981611776  1.0000
  C   C39       1.0  0.7835162271702956  0.7867867168088813  0.5074425152788291  1.0000
  C   C40       1.0  0.7805044357688101  0.7794138102265878  0.4272970305155661  1.0000
  C   C41       1.0  0.7484869953353336  0.8335655932023687  0.3784146495870677  1.0000
  C   C42       1.0  0.7198315230809093  0.8953402182516875  0.4113511118350026  1.0000
  C   C43       1.0  0.7228951341024938  0.9026348613109335  0.49151894910583316  1.0000
  H   H19       1.0  0.7223119917982801  0.9029134400884354  0.09840560978678514  1.0000
  H   H20       1.0  0.7994052205529784  0.722886289537237  0.926756701430548  1.0000
  H   H21       1.0  0.7939535540593291  0.7103002244205615  0.7862573095774059  1.0000
  H   H22       1.0  0.6853554490259053  0.9160058184402387  0.7580336087994944  1.0000
  H   H23       1.0  0.6910392357389762  0.9295535073879704  0.8983012642409958  1.0000
  H   H24       1.0  0.8091391513723034  0.7450138116310614  0.5439208236393727  1.0000
  H   H25       1.0  0.8034433515450128  0.7314877665547279  0.4036251055606095  1.0000
  H   H26       1.0  0.6950765780966416  0.938158226507663  0.3752310727041635  1.0000
  H   H27       1.0  0.7005387702278495  0.9507183545026798  0.515709125201548  1.0000
  H   H28       1.0  0.7108632742895818  0.8754080587309842  0.18741400372394534  1.0000
  Zn  Zn1       1.0  0.678586951798848  0.829755603649409  0.1504927693197513  1.0000
  Zn  Zn2       1.0  0.8158681510616931  0.8313281488201117  0.1514581283538129  1.0000
  C   C44       1.0  0.7480116015981714  0.8293893254921572  0.2924330433879315  1.0000
  C   C45       1.0  0.7464450004716587  0.8316954058515352  0.009517940813183025  1.0000
  C   C46       1.0  0.7471643793188323  0.9695622592350458  0.14788465249012228  1.0000
  C   C47       1.0  0.747292176436555  0.6915215573452599  0.15406637270423473  1.0000
  O   O3        1.0  0.7987005335263132  0.8336906254622557  0.03874038969861515  1.0000
  O   O4        1.0  0.7999493212712236  0.8285870539232856  0.2639430567390637  1.0000
  O   O5        1.0  0.7992644807157296  0.9417784733103557  0.14721920342025743  1.0000
  O   O6        1.0  0.7993853269144311  0.7204992102132798  0.15546418461598766  1.0000
  O   O7        1.0  0.6950697290987513  0.9405845417203841  0.146486712724073  1.0000
  O   O8        1.0  0.6957545691213294  0.8273940365608426  0.26321052471613327  1.0000
  O   O9        1.0  0.6945057762827537  0.8324975691888487  0.0380069264961508  1.0000
  O   O10       1.0  0.6951905699908887  0.7193061492659203  0.15473077948145375  1.0000
