data_image0
_chemical_formula_structural       NC5NC3OH4C9H8C6NCH7Zn2C4O8
_chemical_formula_sum              "N3 C28 O9 H19 Zn2"
_cell_length_a       13.84702359539666
_cell_length_b       9.275152443626249
_cell_length_c       9.273390368590327
_cell_angle_alpha    85.97038560770253
_cell_angle_beta     89.97653543286326
_cell_angle_gamma    90.5743638874884

_space_group_name_H-M_alt    "P 1"
_space_group_IT_number       1

loop_
  _space_group_symop_operation_xyz
  'x, y, z'

loop_
  _atom_site_type_symbol
  _atom_site_label
  _atom_site_symmetry_multiplicity
  _atom_site_fract_x
  _atom_site_fract_y
  _atom_site_fract_z
  _atom_site_occupancy
  N   N1        1.0  0.9200204577105723  0.5618822689047783  0.4044606158636097  1.0000
  C   C1        1.0  0.8478158958056532  0.5538803679885786  0.4675405089998786  1.0000
  C   C2        1.0  0.7578941578146486  0.54391631091645  0.5460882670976379  1.0000
  C   C3        1.0  0.670382762759806  0.5535422151421774  0.4702054946975245  1.0000
  C   C4        1.0  0.5824494580629265  0.544028147977129  0.5452062167325831  1.0000
  C   C5        1.0  0.4926733111190177  0.5539387724218441  0.4670797882301237  1.0000
  N   N2        1.0  0.4205049126379512  0.5619061560287155  0.40427236806519784  1.0000
  C   C6        1.0  0.5820219791278224  0.5248594550681844  0.6963151586837946  1.0000
  C   C7        1.0  0.6691530778577232  0.5152245495245291  0.7722659849026061  1.0000
  C   C8        1.0  0.7574013482940496  0.5246773185081932  0.6977500965568764  1.0000
  O   O1        1.0  0.8442526909753213  0.5150259837600397  0.7738323665869916  1.0000
  H   H1        1.0  0.6707185176797433  0.5683925870659365  0.3531392885099769  1.0000
  H   H2        1.0  0.5144106655992017  0.5173713740843364  0.7553441786019965  1.0000
  H   H3        1.0  0.668039191731641  0.5004036403984593  0.8891007078305808  1.0000
  H   H4        1.0  0.8456799424078196  0.5011549825193946  0.8831779574568234  1.0000
  C   C9        1.0  0.16741840112968664  0.13827741905568974  0.4058389633965571  1.0000
  C   C10       1.0  0.13258479272891543  0.21971372905499595  0.28340950932083153  1.0000
  C   C11       1.0  0.10672811558125717  0.15294535559066613  0.15868424788699653  1.0000
  C   C12       1.0  0.1152990660286624  0.0035532090621597312  0.15391887729497888  1.0000
  C   C13       1.0  0.14824424789759982  0.9204176633791638  0.2753142435618203  1.0000
  C   C14       1.0  0.17311612436206494  0.9855000629483881  0.402906444099171  1.0000
  C   C15       1.0  0.08913917668443738  0.9350295089474682  0.024757793044955623  1.0000
  C   C16       1.0  0.06723638265444976  0.8776234851194022  0.9166056352507423  1.0000
  C   C17       1.0  0.04066167159282318  0.8079594276512694  0.7853819593338334  1.0000
  H   H5        1.0  0.3061750267142989  0.22299487897346545  0.6936242454508122  1.0000
  H   H6        1.0  0.12749766364545478  0.336226153665093  0.28295806952005065  1.0000
  H   H7        1.0  0.08091124008329365  0.2181917493845469  0.06535031502171029  1.0000
  H   H8        1.0  0.15231041479137541  0.8040650929944263  0.27129211701487077  1.0000
  H   H9        1.0  0.26344088590028414  0.692297494200534  0.5997436379552461  1.0000
  H   H10       1.0  0.058315704976186884  0.6913815536930518  0.7988398369395022  1.0000
  H   H11       1.0  0.9620608053217148  0.8203285260264538  0.7656807166411292  1.0000
  H   H12       1.0  0.08144817859753738  0.8593183276488531  0.692075597401089  1.0000
  C   C18       1.0  0.17028176673212833  0.5573902692588024  0.9811425035428961  1.0000
  C   C19       1.0  0.25895962108064907  0.5545282387002002  0.05472154425920084  1.0000
  C   C20       1.0  0.34618058214409597  0.5650761280399286  0.979237476865452  1.0000
  C   C21       1.0  0.34694059412192507  0.578876956240576  0.8275614685743977  1.0000
  C   C22       1.0  0.2588350067057734  0.5793062308014156  0.7531810250321511  1.0000
  C   C23       1.0  0.17025277422630625  0.5663872055249984  0.8276029306248769  1.0000
  N   N3        1.0  0.4358049554231696  0.5910858837244157  0.746697554989896  1.0000
  C   C24       1.0  0.5311561338198858  0.5912604527091283  0.8136492954944656  1.0000
  H   H13       1.0  0.017387586217260775  0.48808938461189516  0.2672796852918886  1.0000
  H   H14       1.0  0.41270968750057135  0.5637519047364246  0.040338045514220384  1.0000
  H   H15       1.0  0.9444393672175206  0.4543053433659176  0.7325844209956598  1.0000
  H   H16       1.0  0.4327358265268047  0.6006461499994042  0.6337898088582778  1.0000
  H   H17       1.0  0.5380459842356977  0.6837987390159517  0.8827951707067601  1.0000
  H   H18       1.0  0.542242488221079  0.48814503207270243  0.8795557183102365  1.0000
  H   H19       1.0  0.5878241187451303  0.6021686394585635  0.7286996917762267  1.0000
  Zn  Zn1       1.0  0.06444943236059975  0.5618853887175921  0.4044146153420072  1.0000
  Zn  Zn2       1.0  0.2760758341437426  0.5618913577317008  0.40433017160822304  1.0000
  C   C25       1.0  0.1702174314387097  0.5589397526481996  0.6676236846285093  1.0000
  C   C26       1.0  0.1703101582552966  0.564838815515182  0.14112123655746855  1.0000
  C   C27       1.0  0.17203435317565496  0.8252958768748937  0.39771755479004667  1.0000
  C   C28       1.0  0.16849315264667464  0.2984809589507258  0.4110274492623598  1.0000
  O   O2        1.0  0.250630760962155  0.5673345875013229  0.1947795366072933  1.0000
  O   O3        1.0  0.25051636367915964  0.5564474183400678  0.6139008826238235  1.0000
  O   O4        1.0  0.25198246827621773  0.7715333730840095  0.3959497683888642  1.0000
  O   O5        1.0  0.24916458422444498  0.35224864192614747  0.41273054277226295  1.0000
  O   O6        1.0  0.09136061006220332  0.771528104522599  0.3960142441991976  1.0000
  O   O7        1.0  0.08989451711912788  0.5564438821158719  0.6139652755889586  1.0000
  O   O8        1.0  0.09000891418768031  0.5673309825901478  0.19484219695715677  1.0000
  O   O9        1.0  0.08854273737292817  0.35224502784565903  0.4127933112133466  1.0000
