data_image0
_chemical_formula_structural       NC9NC3OH6C7ONH7C6OCH7Zn2C4O8
_chemical_formula_sum              "N3 C30 O11 H20 Zn2"
_cell_length_a       15.78231758774541
_cell_length_b       10.297852080636378
_cell_length_c       9.273891588657154
_cell_angle_alpha    86.07585780887825
_cell_angle_beta     89.76748324947235
_cell_angle_gamma    89.61065309411966

_space_group_name_H-M_alt    "P 1"
_space_group_IT_number       1

loop_
  _space_group_symop_operation_xyz
  'x, y, z'

loop_
  _atom_site_type_symbol
  _atom_site_label
  _atom_site_symmetry_multiplicity
  _atom_site_fract_x
  _atom_site_fract_y
  _atom_site_fract_z
  _atom_site_occupancy
  N   N1        1.0  0.8027317751274363  0.40057548315320607  0.412782823149404  1.0000
  C   C1        1.0  0.7541324437379842  0.3187151808885758  0.4395086592296469  1.0000
  C   C2        1.0  0.6937945869108667  0.21710665100640372  0.47268230696563784  1.0000
  C   C3        1.0  0.7133525382380925  0.0894692443199927  0.5142656199203679  1.0000
  C   C4        1.0  0.6365709762340857  0.027611835756282014  0.5345012632693229  1.0000
  C   C5        1.0  0.5748676158668214  0.12207849854559827  0.5037706682328754  1.0000
  C   C6        1.0  0.48176201033952015  0.10461388750336509  0.5095541341730612  1.0000
  C   C7        1.0  0.42810512984981586  0.21170219569993634  0.47453398896995946  1.0000
  C   C8        1.0  0.3398866266230017  0.19738169820285803  0.4792842398310468  1.0000
  C   C9        1.0  0.28553584560233874  0.30758572159130493  0.4432360128713406  1.0000
  N   N2        1.0  0.24185070539602208  0.39617552648192667  0.4142564602458747  1.0000
  C   C10       1.0  0.3046435779614826  0.07581352498818084  0.5191090136035639  1.0000
  C   C11       1.0  0.3573696925126783  0.9689466583204035  0.5540615914511664  1.0000
  C   C12       1.0  0.445402207980172  0.9828737372609796  0.5494404259627981  1.0000
  O   O1        1.0  0.6114179946656841  0.23403289070444513  0.4672427516529336  1.0000
  H   H1        1.0  0.7757778430030907  0.0464248713173081  0.5282325682852957  1.0000
  H   H2        1.0  0.627755393437029  0.9259010577401874  0.5676548117728211  1.0000
  H   H3        1.0  0.4547887256602762  0.3063037475049353  0.44353801310664437  1.0000
  H   H4        1.0  0.23651711666010072  0.0636847885697085  0.5231298734405405  1.0000
  H   H5        1.0  0.3299563135789502  0.8749918556559683  0.5848461328732573  1.0000
  H   H6        1.0  0.48441886552925756  0.8982277276555327  0.5771344854137896  1.0000
  C   C13       1.0  0.02238557989294554  0.016937492966327305  0.4135285515518576  1.0000
  C   C14       1.0  0.011283475344420861  0.02536281273418474  0.26291525962425966  1.0000
  C   C15       1.0  0.004905265241835983  0.9125505327022444  0.1866624356108663  1.0000
  C   C16       1.0  0.011069430358280997  0.7901123442414514  0.26286481636498227  1.0000
  C   C17       1.0  0.022204915155552327  0.779803561162942  0.41352315281524565  1.0000
  C   C18       1.0  0.027589497050847896  0.8937304743429105  0.48790409316452654  1.0000
  C   C19       1.0  0.9933894420080731  0.924047747218401  0.02756599669469795  1.0000
  O   O2        1.0  0.01626218142461733  0.026340256563319744  0.9558661905740935  1.0000
  N   N3        1.0  0.9557784641883035  0.8220105944159922  0.9530219336743254  1.0000
  H   H7        1.0  0.04367566918767027  0.20828339419503616  0.6981123146234577  1.0000
  H   H8        1.0  0.006832287987453163  0.12006231563282223  0.20479903168445346  1.0000
  H   H9        1.0  0.008862360089656686  0.7024649060923324  0.20504771597683713  1.0000
  H   H10       1.0  0.03614391337968013  0.8864834477318373  0.6039836215653068  1.0000
  H   H11       1.0  0.04460944774007957  0.5530480702090308  0.6979793129471988  1.0000
  H   H12       1.0  0.9518790567311685  0.8302061175410855  0.8403907365242445  1.0000
  H   H13       1.0  0.9266604809306461  0.7426162474602724  0.008308561801418037  1.0000
  C   C20       1.0  0.02368416473303546  0.3949165116042048  0.990255228532591  1.0000
  C   C21       1.0  0.0930608354009681  0.44908471521102966  0.05906140721520802  1.0000
  C   C22       1.0  0.1576289973110401  0.513000403487945  0.9794679429130624  1.0000
  C   C23       1.0  0.15305135464062747  0.5230710521929836  0.8280119058121627  1.0000
  C   C24       1.0  0.08545500140323536  0.46809851529680047  0.757869508649323  1.0000
  C   C25       1.0  0.02090634273888714  0.40182449424368705  0.8367965044360179  1.0000
  O   O3        1.0  0.22469205896586497  0.5655925231962128  0.054899275092324944  1.0000
  C   C26       1.0  0.2944503446241622  0.6332531203851528  0.9880565791977459  1.0000
  H   H14       1.0  0.8221618130397728  0.31715694046675846  0.10059667967389037  1.0000
  H   H15       1.0  0.20184954278281297  0.5721824376266355  0.7632532223122013  1.0000
  H   H16       1.0  0.0847697315019586  0.47479982920266744  0.640785991207638  1.0000
  H   H17       1.0  0.8865190175692765  0.34431014733034676  0.560903235055739  1.0000
  H   H18       1.0  0.271684968027853  0.7213801830286415  0.9235840569193469  1.0000
  H   H19       1.0  0.32979522275560713  0.5684338101491782  0.9177629251646802  1.0000
  H   H20       1.0  0.3378164129607615  0.6638661217794963  0.07304546232583298  1.0000
  Zn  Zn1       1.0  0.9294519827980772  0.399302348964206  0.4132163997955201  1.0000
  Zn  Zn2       1.0  0.11513043307956283  0.3974381554304782  0.4138346664285463  1.0000
  C   C27       1.0  0.02143075967724471  0.3953441787610202  0.6767821250507309  1.0000
  C   C28       1.0  0.02315368295101417  0.4013979453477097  0.15026908938473582  1.0000
  C   C29       1.0  0.022253576125620848  0.6355588075842018  0.4077804228792955  1.0000
  C   C30       1.0  0.02233080326092127  0.1611817572023979  0.4192708682021494  1.0000
  O   O4        1.0  0.09343965397119591  0.4028600552217798  0.20420583183621493  1.0000
  O   O5        1.0  0.09207043770735224  0.3924662058434256  0.6233142177536539  1.0000
  O   O6        1.0  0.09273391758893856  0.5864425783137895  0.4060934368461251  1.0000
  O   O7        1.0  0.09277611108255956  0.20888369179753274  0.42142650445929664  1.0000
  O   O8        1.0  0.9518062414321625  0.5878568132346617  0.40562456154620397  1.0000
  O   O9        1.0  0.951142761429376  0.3938820007239368  0.6228452655891894  1.0000
  O   O10       1.0  0.9525119834467319  0.40427579069613007  0.20373514671747794  1.0000
  O   O11       1.0  0.951848440202228  0.21029941886327624  0.42095592740644205  1.0000
