data_image0
_chemical_formula_structural       NC5OC5NC4H8C7NH5C6BrH4Zn2C4O8
_chemical_formula_sum              "N3 C31 O9 H17 Br1 Zn2"
_cell_length_a       19.189071930511275
_cell_length_b       9.275154477615127
_cell_length_c       9.27656775626242
_cell_angle_alpha    86.34818767424132
_cell_angle_beta     90.16432666077901
_cell_angle_gamma    89.42495848434854

_space_group_name_H-M_alt    "P 1"
_space_group_IT_number       1

loop_
  _space_group_symop_operation_xyz
  'x, y, z'

loop_
  _atom_site_type_symbol
  _atom_site_label
  _atom_site_symmetry_multiplicity
  _atom_site_fract_x
  _atom_site_fract_y
  _atom_site_fract_z
  _atom_site_occupancy
  N   N1        1.0  0.6462643510925131  0.5622126555658769  0.4163320732740594  1.0000
  C   C1        1.0  0.5915321948619453  0.6132155394755843  0.39623999830768386  1.0000
  C   C2        1.0  0.5234524602324873  0.6766546247362484  0.3712484730430472  1.0000
  C   C3        1.0  0.5130717244804183  0.7831604459130481  0.25914848847406846  1.0000
  C   C4        1.0  0.4469394478524254  0.8448658625656027  0.2350121096430771  1.0000
  C   C5        1.0  0.3905273878144995  0.79993578499957  0.3214715138054378  1.0000
  O   O1        1.0  0.3252010632540573  0.8656484855560546  0.2948381209932216  1.0000
  C   C6        1.0  0.2605864007295125  0.799719208446428  0.32084466399518075  1.0000
  C   C7        1.0  0.2034640837765068  0.8861895405258086  0.3547609377810843  1.0000
  C   C8        1.0  0.1379971888172696  0.8248103045658495  0.3798424257713646  1.0000
  C   C9        1.0  0.1289957238668278  0.6761468162701136  0.36977732829485443  1.0000
  C   C10       1.0  0.061600514867748  0.6129357497055712  0.3954293348295568  1.0000
  N   N2        1.0  0.0074187457244408025  0.5621162531122725  0.41605289121547484  1.0000
  C   C11       1.0  0.18564319109597824  0.5893133961543513  0.33373226226272035  1.0000
  C   C12       1.0  0.2511010909875491  0.6507368944646803  0.3086993635661923  1.0000
  C   C13       1.0  0.4013882465330632  0.694449677068063  0.4353711459522969  1.0000
  C   C14       1.0  0.46751173559757403  0.6327403703079622  0.4595756086050995  1.0000
  H   H1        1.0  0.5560433291269282  0.8185841342620891  0.19062041522734074  1.0000
  H   H2        1.0  0.43937419739715183  0.9273228699066507  0.14827696442415506  1.0000
  H   H3        1.0  0.20996163682108127  0.0012529225730406675  0.36251358934497824  1.0000
  H   H4        1.0  0.09446429799739843  0.8932043705752626  0.4068570335287631  1.0000
  H   H5        1.0  0.17913564355502423  0.4744029426243965  0.3242329101527872  1.0000
  H   H6        1.0  0.2939179962463248  0.5825374498277696  0.2778979800603454  1.0000
  H   H7        1.0  0.359118212817905  0.661469993506266  0.5066307857635104  1.0000
  H   H8        1.0  0.47507983015374344  0.5514585613157572  0.5475264196690188  1.0000
  C   C15       1.0  0.8288589459508732  0.1387583124145632  0.4145234890873588  1.0000
  C   C16       1.0  0.8095367552609856  0.22069847590492306  0.28749149506705307  1.0000
  C   C17       1.0  0.7845564973425955  0.15348853991419076  0.1671937404691295  1.0000
  C   C18       1.0  0.778487979293527  0.0034216592584355187  0.17251130285528626  1.0000
  C   C19       1.0  0.7984516371913349  0.9202452918510162  0.29664686735422885  1.0000
  C   C20       1.0  0.8248309160732066  0.9855596829534529  0.41787391429507736  1.0000
  C   C21       1.0  0.7643048396553458  0.2389957693411935  0.03863121816756165  1.0000
  N   N3        1.0  0.7480281201677638  0.3077279967706983  0.9352998809018134  1.0000
  H   H9        1.0  0.8429106700029674  0.21888911117715512  0.7682093327420172  1.0000
  H   H10       1.0  0.8123762227235399  0.3376152525210374  0.28321387206591897  1.0000
  H   H11       1.0  0.7589177578463306  0.9503948027967424  0.08005521020570283  1.0000
  H   H12       1.0  0.7947920890270554  0.8037774304421665  0.2965228864728069  1.0000
  H   H13       1.0  0.8372477876145018  0.6891067616963733  0.6548511694200441  1.0000
  C   C22       1.0  0.826199451738306  0.5580156388877944  0.9930560480403097  1.0000
  C   C23       1.0  0.7641072631533543  0.5927425874301513  0.06385209027292227  1.0000
  C   C24       1.0  0.7050553114841757  0.6393453704328171  0.9853809011072223  1.0000
  C   C25       1.0  0.7069860471665801  0.6521650875016889  0.8349342411677316  1.0000
  C   C26       1.0  0.7677194435042911  0.6158809704086872  0.762406030321312  1.0000
  C   C27       1.0  0.8274904294359161  0.5663023799254183  0.8393413303925166  1.0000
  Br  Br1       1.0  0.6261572074972449  0.7171078550234793  0.7280031218842633  1.0000
  H   H14       1.0  0.9226909605316962  0.42702932745530453  0.28329797789963673  1.0000
  H   H15       1.0  0.6579424106934373  0.6668480554615448  0.041843372974116784  1.0000
  H   H16       1.0  0.767574731602875  0.6232460727811906  0.6453847919571021  1.0000
  H   H17       1.0  0.9422245643825837  0.5513833289175041  0.559799051558667  1.0000
  Zn  Zn1       1.0  0.7504857477791156  0.5621810708910999  0.41625980705644894  1.0000
  Zn  Zn2       1.0  0.9031974402850095  0.5621362022221629  0.41613689241088103  1.0000
  C   C28       1.0  0.8272721553615137  0.5589920105378539  0.6793525503866131  1.0000
  C   C29       1.0  0.8264126918715895  0.5653270827106336  0.15304429636498962  1.0000
  C   C30       1.0  0.8255799502719016  0.8254399547687614  0.41149853927280944  1.0000
  C   C31       1.0  0.8281048532086598  0.2988774069566136  0.4208983774896722  1.0000
  O   O2        1.0  0.8844375785718896  0.567757552361112  0.20669114365852392  1.0000
  O   O3        1.0  0.8851519143064093  0.5565263948294713  0.625611994621861  1.0000
  O   O4        1.0  0.8837846583431609  0.7716864943907182  0.4093179920963219  1.0000
  O   O5        1.0  0.8858047822111099  0.3525974620715172  0.4229850382260911  1.0000
  O   O6        1.0  0.7678783537399904  0.7717198110585521  0.4094116612756107  1.0000
  O   O7        1.0  0.7692456013427553  0.5565614430372252  0.6257055938246421  1.0000
  O   O8        1.0  0.7685312632508713  0.5677925333607488  0.2067830102318282  1.0000
  O   O9        1.0  0.7698984671010948  0.35263243381630904  0.42307701279173937  1.0000
