data_image0
_chemical_formula_structural       NC5OC5NC4H8C9H10C7ONH5Zn2C4O8
_chemical_formula_sum              "N3 C34 O10 H23 Zn2"
_cell_length_a       19.189071930511275
_cell_length_b       10.297183801781406
_cell_length_c       9.27304215883966
_cell_angle_alpha    86.13565984305119
_cell_angle_beta     90.07135709723086
_cell_angle_gamma    89.98878219536965

_space_group_name_H-M_alt    "P 1"
_space_group_IT_number       1

loop_
  _space_group_symop_operation_xyz
  'x, y, z'

loop_
  _atom_site_type_symbol
  _atom_site_label
  _atom_site_symmetry_multiplicity
  _atom_site_fract_x
  _atom_site_fract_y
  _atom_site_fract_z
  _atom_site_occupancy
  N   N1        1.0  0.6549331267845492  0.4064386386211871  0.4089011212563558  1.0000
  C   C1        1.0  0.60045918758598  0.45237688078376515  0.38857677115631606  1.0000
  C   C2        1.0  0.5327006321603985  0.5095163957789415  0.36329633423736674  1.0000
  C   C3        1.0  0.5229141423483842  0.6053993761173864  0.250688385121814  1.0000
  C   C4        1.0  0.4570941326357981  0.6609774923102538  0.2262710462994102  1.0000
  C   C5        1.0  0.40040065722621904  0.620554796379019  0.31295753735504217  1.0000
  O   O1        1.0  0.3354076081253504  0.6797416574266163  0.2860246346556349  1.0000
  C   C6        1.0  0.2704591323729654  0.6203592519929906  0.31233144115655254  1.0000
  C   C7        1.0  0.21372126443859293  0.6982882435822504  0.3458761291248307  1.0000
  C   C8        1.0  0.14794291167886986  0.6430046327282861  0.3712374424453406  1.0000
  C   C9        1.0  0.1382426359575233  0.5090579006638036  0.36182695604131015  1.0000
  C   C10       1.0  0.0705268135310315  0.4521242613711143  0.3877670809717405  1.0000
  N   N2        1.0  0.016087282170030897  0.40635159789009845  0.40862227459314254  1.0000
  C   C11       1.0  0.194505598234897  0.4308003636248401  0.32615438703224875  1.0000
  C   C12       1.0  0.26027512821897764  0.4861238854859743  0.3008414830028148  1.0000
  C   C13       1.0  0.4106707055836861  0.5255917361857363  0.4273612094404482  1.0000
  C   C14       1.0  0.4764818558267476  0.4700101604832209  0.45184667154750097  1.0000
  H   H1        1.0  0.5661079039076838  0.637269122066453  0.18198115418848748  1.0000
  H   H2        1.0  0.4499889070255106  0.7352103114682824  0.13914265124924158  1.0000
  H   H3        1.0  0.22075971636498257  0.8019610449007311  0.35312210893810825  1.0000
  H   H4        1.0  0.10471395459927949  0.704643015647823  0.3979582044264707  1.0000
  H   H5        1.0  0.18745924912518422  0.32726418211220376  0.3171604591371003  1.0000
  H   H6        1.0  0.302791995738426  0.4246583278535054  0.2703318466026359  1.0000
  H   H7        1.0  0.36818799012761005  0.49592576218220946  0.4987900837452535  1.0000
  H   H8        1.0  0.48359455840071514  0.39683695873131186  0.5401859289210511  1.0000
  C   C15       1.0  0.8355161500249173  0.02492151138874155  0.4089659140302422  1.0000
  C   C16       1.0  0.833365214234893  0.03334334500870995  0.25729441411493004  1.0000
  C   C17       1.0  0.8322630657385265  0.9210416092991894  0.1795886694887932  1.0000
  C   C18       1.0  0.8333565875166076  0.798166678192277  0.2567065580638088  1.0000
  C   C19       1.0  0.8355109707594726  0.7878588828583731  0.40856989970150165  1.0000
  C   C20       1.0  0.8365760271009084  0.9017030281828176  0.4837082490095699  1.0000
  C   C21       1.0  0.8299364839896107  0.9395826118928644  0.015545232725510786  1.0000
  C   C22       1.0  0.7890679555018769  0.8401144792373173  0.9353408015427213  1.0000
  C   C23       1.0  0.8684569082838304  0.8403601351380757  0.930700710957026  1.0000
  H   H9        1.0  0.8363515916593813  0.34921476115776606  0.4674098027271075  1.0000
  H   H10       1.0  0.8325349806884667  0.1280170027386649  0.19874084707920603  1.0000
  H   H11       1.0  0.8325477187404248  0.7100271860782684  0.19977901356085503  1.0000
  H   H12       1.0  0.838235169944825  0.8944779639111906  0.6007259964567361  1.0000
  H   H13       1.0  0.8395707369237303  0.5611739122088365  0.6953969979479764  1.0000
  H   H14       1.0  0.829189319503536  0.03979822383027853  0.9628187878637156  1.0000
  H   H15       1.0  0.7658653337475041  0.7571047386438255  0.000952592431001212  1.0000
  H   H16       1.0  0.7644022628013685  0.8800261011524316  0.833382112503691  1.0000
  H   H17       1.0  0.893478812734281  0.7575004241632094  0.9934946484234907  1.0000
  H   H18       1.0  0.8901905636833728  0.8804129521745314  0.8260287632888708  1.0000
  C   C24       1.0  0.8351803467567621  0.4023754971325515  0.985505357684965  1.0000
  C   C25       1.0  0.7711738075436282  0.4106630643058369  0.0582312951880164  1.0000
  C   C26       1.0  0.7084256185153405  0.43151553969337075  0.982012770199594  1.0000
  C   C27       1.0  0.7100703297212123  0.44251129724592975  0.8305070924421473  1.0000
  C   C28       1.0  0.7729360450681618  0.43231674782360985  0.7567735951243986  1.0000
  C   C29       1.0  0.8358467829930348  0.41040485964342177  0.8320305141848721  1.0000
  C   C30       1.0  0.6418331638292512  0.44049942287586247  0.0619195563242374  1.0000
  O   O2        1.0  0.6371778586443666  0.3902302733753071  0.18931986482292795  1.0000
  N   N3        1.0  0.5825557444355378  0.506417421605446  0.998394659727608  1.0000
  H   H19       1.0  0.004256096367900806  0.451954263937613  0.08530910505665346  1.0000
  H   H20       1.0  0.6626806948177683  0.45536673209372847  0.7679138857259074  1.0000
  H   H21       1.0  0.949809347293389  0.43777134257640465  0.549006514216859  1.0000
  H   H22       1.0  0.5859114279098663  0.5625126440680421  0.9006971245260168  1.0000
  H   H23       1.0  0.5354542191754627  0.5062825537547085  0.054673567149631674  1.0000
  Zn  Zn1       1.0  0.7591544300206116  0.40641013394482317  0.40882897120044426  1.0000
  Zn  Zn2       1.0  0.9118660056623372  0.4063696271866941  0.4087062149538221  1.0000
  C   C31       1.0  0.8357192746810739  0.4037120661277642  0.6720217970932887  1.0000
  C   C32       1.0  0.8353028287077485  0.4090693349729806  0.14551352833849474  1.0000
  C   C33       1.0  0.835503831296295  0.6435929979035074  0.40290111359480196  1.0000
  C   C34       1.0  0.8355182200538553  0.16918684320874575  0.4146342895334737  1.0000
  O   O3        1.0  0.8932971819009187  0.4112948086997916  0.19916714968814286  1.0000
  O   O4        1.0  0.8936294735746761  0.40145486478165976  0.6182745921881916  1.0000
  O   O5        1.0  0.8934547202591698  0.5951617653217889  0.40095773611661795  1.0000
  O   O6        1.0  0.8934718830211678  0.21758791644118913  0.41648389772543754  1.0000
  O   O7        1.0  0.7775485005488091  0.5951918447054939  0.40105128846313765  1.0000
  O   O8        1.0  0.7777232537900154  0.40148650416902204  0.618368066872528  1.0000
  O   O9        1.0  0.7773909607986962  0.411326386381766  0.19925889147426482  1.0000
  O   O10       1.0  0.7775656620012301  0.21761948585680257  0.41657574758014726  1.0000
