data_image0
_chemical_formula_structural       NC5NC3BrH3C9H10C7ONH5Zn2C4O8
_chemical_formula_sum              "N3 C28 Br1 H18 O9 Zn2"
_cell_length_a       13.839083392302014
_cell_length_b       10.297183801781404
_cell_length_c       9.273042158839658
_cell_angle_alpha    86.13565984305119
_cell_angle_beta     90.09396774382412
_cell_angle_gamma    90.02359494799444

_space_group_name_H-M_alt    "P 1"
_space_group_IT_number       1

loop_
  _space_group_symop_operation_xyz
  'x, y, z'

loop_
  _atom_site_type_symbol
  _atom_site_label
  _atom_site_symmetry_multiplicity
  _atom_site_fract_x
  _atom_site_fract_y
  _atom_site_fract_z
  _atom_site_occupancy
  N   N1        1.0  0.9081212792524562  0.40715097770812686  0.40938264629860766  1.0000
  C   C1        1.0  0.8361230884179689  0.349840864827397  0.411875917507353  1.0000
  C   C2        1.0  0.7464192083264016  0.27852726798202204  0.41497825124069665  1.0000
  C   C3        1.0  0.6588574458479393  0.34714643379460225  0.4119933267914029  1.0000
  C   C4        1.0  0.5708159368699964  0.27985347490591517  0.4149205014122257  1.0000
  C   C5        1.0  0.48105159020697735  0.3505901042181263  0.41184330668085384  1.0000
  N   N2        1.0  0.40889270320490045  0.4074568068204796  0.40936928631917224  1.0000
  C   C6        1.0  0.5702703790219306  0.1436608379678479  0.42084485073794636  1.0000
  C   C7        1.0  0.6573871039250868  0.0749324680421446  0.4238344341895093  1.0000
  C   C8        1.0  0.7456246901447025  0.1415823480723668  0.4209352535367141  1.0000
  Br  Br1       1.0  0.8630351876201267  0.04244442366567269  0.42524781993053545  1.0000
  H   H1        1.0  0.6592251163273789  0.45268419905291607  0.4074022580585293  1.0000
  H   H2        1.0  0.5025799483066702  0.09066323534626908  0.4231499668527203  1.0000
  H   H3        1.0  0.6562562188086124  0.9696191131002952  0.42841536363342403  1.0000
  C   C9        1.0  0.15851521928943146  0.025830261896376158  0.40958020873147066  1.0000
  C   C10       1.0  0.15553276126227855  0.03424975604751323  0.2579071273883693  1.0000
  C   C11       1.0  0.15400453729327568  0.9219468215843772  0.1802005724320173  1.0000
  C   C12       1.0  0.1555207995731771  0.7990730798482161  0.25731926499464475  1.0000
  C   C13       1.0  0.15850803779109407  0.788767627732771  0.40918419059479016  1.0000
  C   C14       1.0  0.1599848302874656  0.9026129314674881  0.48432332296189  1.0000
  C   C15       1.0  0.15077853099171046  0.9404852936676064  0.016155425101153097  1.0000
  C   C16       1.0  0.0941107906475036  0.8409727102901812  0.9359209462400551  1.0000
  C   C17       1.0  0.20419042230824422  0.841304713715328  0.9313392246194941  1.0000
  H   H4        1.0  0.1596736311864675  0.35012442033486146  0.4680247116682512  1.0000
  H   H5        1.0  0.1543815708285916  0.12892251077259287  0.19935294994186092  1.0000
  H   H6        1.0  0.15439923323650273  0.7109327079667596  0.2003911257888804  1.0000
  H   H7        1.0  0.16228537496945106  0.8953896717652896  0.6013422902569998  1.0000
  H   H8        1.0  0.16413725380075284  0.5620870726945455  0.6960142736942128  1.0000
  H   H9        1.0  0.1497425229763005  0.0407000929503445  0.9634284309032558  1.0000
  H   H10       1.0  0.061938353969821724  0.7579377333271746  0.0015156779157781144  1.0000
  H   H11       1.0  0.059909679888599625  0.8808575045242721  0.8339441222980339  1.0000
  H   H12       1.0  0.23888545138768014  0.7584722178557775  0.9941515588857325  1.0000
  H   H13       1.0  0.2343260104119702  0.881381169397639  0.826683256138995  1.0000
  C   C18       1.0  0.15804959908947125  0.4032838824032119  0.9861194054942959  1.0000
  C   C19       1.0  0.06929901083303802  0.4115018327593956  0.05879828361030626  1.0000
  C   C20       1.0  0.982293233661701  0.4322860599764655  0.982533624408882  1.0000
  C   C21       1.0  0.9845737676325663  0.4432836064018584  0.8310291558888379  1.0000
  C   C22       1.0  0.07174250518334378  0.4331574329776953  0.7573418791927079  1.0000
  C   C23       1.0  0.15897367042236454  0.411313969764545  0.8326450519766504  1.0000
  C   C24       1.0  0.889957050523439  0.4411975137666597  0.06239144990953994  1.0000
  O   O1        1.0  0.8835020682864532  0.3909233009158029  0.18978833569843845  1.0000
  N   N3        1.0  0.8077637948625266  0.5070510393140508  0.9988229709062328  1.0000
  H   H14       1.0  0.39248771154418716  0.4530465447239778  0.08604746205748115  1.0000
  H   H15       1.0  0.9188639506881874  0.4560874978357159  0.7684011069955634  1.0000
  H   H16       1.0  0.31699259700717514  0.4388044042670533  0.5497048404541229  1.0000
  H   H17       1.0  0.8124167394836587  0.5631499115912679  0.9011279028964219  1.0000
  H   H18       1.0  0.7424534667929666  0.5068649414122977  0.05506724797744144  1.0000
  Zn  Zn1       1.0  0.05263310702449453  0.40723582950275317  0.4093871226422354  1.0000
  Zn  Zn2       1.0  0.2643808805861811  0.4073614197397355  0.40937664419147635  1.0000
  C   C25       1.0  0.15879686914810073  0.4046210375642634  0.6726362411374116  1.0000
  C   C26       1.0  0.15821943088063617  0.40997785346133564  0.14612766619996065  1.0000
  C   C27       1.0  0.15849813830949966  0.6445017350126565  0.40351539923895935  1.0000
  C   C28       1.0  0.15851808956312885  0.170095595967851  0.4152485857566456  1.0000
  O   O2        1.0  0.23863360456851823  0.4122664048412868  0.19982392661034631  1.0000
  O   O3        1.0  0.23909435563991208  0.4024268223407379  0.6189316134204712  1.0000
  O   O4        1.0  0.23885204509255864  0.5961335328101369  0.40161462886540167  1.0000
  O   O5        1.0  0.23887584274264473  0.2185597025966435  0.4171408030927606  1.0000
  O   O6        1.0  0.07813807260889917  0.5960375466043296  0.40162296373694484  1.0000
  O   O7        1.0  0.07838038305322968  0.40233239613850685  0.618939870629776  1.0000
  O   O8        1.0  0.07791963015492209  0.4121719169322347  0.19983045092046758  1.0000
  O   O9        1.0  0.07816186844314442  0.21846520642132064  0.4171474354715312  1.0000
