data_image0
_chemical_formula_structural       NC5NC3F3CH3C7NH5C9H10Zn2C4O8
_chemical_formula_sum              "N3 C29 F3 H18 Zn2 O8"
_cell_length_a       13.85151926108384
_cell_length_b       9.275154477615127
_cell_length_c       10.29718717394978
_cell_angle_alpha    85.79368962705624
_cell_angle_beta     89.97408904731064
_cell_angle_gamma    89.43371178103573

_space_group_name_H-M_alt    "P 1"
_space_group_IT_number       1

loop_
  _space_group_symop_operation_xyz
  'x, y, z'

loop_
  _atom_site_type_symbol
  _atom_site_label
  _atom_site_symmetry_multiplicity
  _atom_site_fract_x
  _atom_site_fract_y
  _atom_site_fract_z
  _atom_site_occupancy
  N   N1        1.0  0.899120546956989  0.5776928507333907  0.5728119905198064  1.0000
  C   C1        1.0  0.8268321460825442  0.5686229119389752  0.6290672575232539  1.0000
  C   C2        1.0  0.7368996919661371  0.5573386643153694  0.699056857585503  1.0000
  C   C3        1.0  0.6493355492847253  0.5665484609576419  0.631035657391297  1.0000
  C   C4        1.0  0.5618477025553478  0.5573386511705913  0.6990568394641363  1.0000
  C   C5        1.0  0.4718128938278194  0.5686229280961475  0.6290673423436861  1.0000
  N   N2        1.0  0.3994423615624289  0.5776928128671627  0.5728120854064076  1.0000
  C   C6        1.0  0.5619212865920585  0.5379213473012099  0.8352542884419263  1.0000
  C   C7        1.0  0.6495152290819463  0.5255227079969578  0.9044013585227072  1.0000
  C   C8        1.0  0.6495688330819128  0.5099695577700287  0.051241480697165165  1.0000
  F   F1        1.0  0.7309826628259982  0.4351801225148968  0.09747177364972337  1.0000
  F   F2        1.0  0.569113848337616  0.43518009193537743  0.09747186301515887  1.0000
  F   F3        1.0  0.6486543461086526  0.6457557467623629  0.09833035982107896  1.0000
  C   C9        1.0  0.736991614057373  0.5379212520743146  0.8352543057780728  1.0000
  H   H1        1.0  0.6492704334362217  0.581742186027173  0.525587334198105  1.0000
  H   H2        1.0  0.4938147951464184  0.5327517366180108  0.8871851972628003  1.0000
  H   H3        1.0  0.8051315492134591  0.5327516557344176  0.8871851599923726  1.0000
  C   C10       1.0  0.15208024383778063  0.15430334590875794  0.5713088722823627  1.0000
  C   C11       1.0  0.12561933759844512  0.23746678058327197  0.45677912140938154  1.0000
  C   C12       1.0  0.09130382502503531  0.17141353464349018  0.3483161812149531  1.0000
  C   C13       1.0  0.08288402759665227  0.02129366437163838  0.3531056055698929  1.0000
  C   C14       1.0  0.11024057993163199  0.9369221979215008  0.4650247421363425  1.0000
  C   C15       1.0  0.14649196527644984  0.001071276374061905  0.5743263921733381  1.0000
  C   C16       1.0  0.06355898961168994  0.25815859301511046  0.23240604808545995  1.0000
  N   N3        1.0  0.041259838700346455  0.32788571796267824  0.1392439911630119  1.0000
  H   H4        1.0  0.17069224569619945  0.23101797366897991  0.8901579347659198  1.0000
  H   H5        1.0  0.12956329466495453  0.35442565419629757  0.4529249265610611  1.0000
  H   H6        1.0  0.05599599037249382  0.9691556977914506  0.26974502396248196  1.0000
  H   H7        1.0  0.10517116635001811  0.8204545862878301  0.4649104254848982  1.0000
  H   H8        1.0  0.16312107392010966  0.7023302242519248  0.7879643340324467  1.0000
  C   C17       1.0  0.14941407579416088  0.5776351829992137  0.19136427351259577  1.0000
  C   C18       1.0  0.0513165849902917  0.6172364631611209  0.18802347431399546  1.0000
  C   C19       1.0  0.0010583507066879183  0.6375251244140072  0.06969547978371837  1.0000
  C   C20       1.0  0.05093631455993576  0.6173894241144497  0.9528012942748796  1.0000
  C   C21       1.0  0.14915813741101075  0.5777394439891839  0.954270954715347  1.0000
  C   C22       1.0  0.19775560259281133  0.5581198319477213  0.07394233660240634  1.0000
  C   C23       1.0  0.8949588461621536  0.6803564442852743  0.0755143356189627  1.0000
  C   C24       1.0  0.8277535944619286  0.6223654478432753  0.9750358317801036  1.0000
  C   C25       1.0  0.8554115818114777  0.7814267263466679  0.9645031535125278  1.0000
  H   H9        1.0  0.18721669760304074  0.5623886239335154  0.5201890476416458  1.0000
  H   H10       1.0  0.01344564326578302  0.6325250912639948  0.2781561020269021  1.0000
  H   H11       1.0  0.014116268674140071  0.6322501125323845  0.860247146996489  1.0000
  H   H12       1.0  0.2734396925422904  0.5275658952124997  0.07579248356338497  1.0000
  H   H13       1.0  0.3346679634725802  0.5028333470478465  0.7498315151371778  1.0000
  H   H14       1.0  0.8608568695173056  0.6941243738407707  0.17164067700518482  1.0000
  H   H15       1.0  0.8608775602250964  0.5572900131508832  0.9002789546961761  1.0000
  H   H16       1.0  0.7528494486050282  0.6028569387466436  0.010084884144668354  1.0000
  H   H17       1.0  0.9053367372117301  0.8129721404745812  0.8833491780662799  1.0000
  H   H18       1.0  0.7966714477973151  0.8548829654292225  0.9933939036386792  1.0000
  Zn  Zn1       1.0  0.043502638173764895  0.5776889918184577  0.5728194913767445  1.0000
  Zn  Zn2       1.0  0.2550603269470184  0.5776849132851047  0.5728151338643881  1.0000
  C   C26       1.0  0.14924225861193596  0.5719759804923767  0.8100447852621893  1.0000
  C   C27       1.0  0.14932300466377088  0.5833997437525692  0.33558997390868406  1.0000
  C   C28       1.0  0.14754503209890069  0.8410133864102768  0.568579667284463  1.0000
  C   C29       1.0  0.1510201703956  0.31436060562326995  0.5770551549690339  1.0000
  O   O1        1.0  0.22957752221898498  0.5853265452062504  0.3839917604117933  1.0000
  O   O2        1.0  0.229555139027508  0.5700449958033609  0.761639313703286  1.0000
  O   O3        1.0  0.22818352441998777  0.7872961037298466  0.5666545278950283  1.0000
  O   O4        1.0  0.230949064600805  0.36807544758170097  0.5789764488620674  1.0000
  O   O5        1.0  0.0676138283257135  0.7872984575248219  0.5666581763737254  1.0000
  O   O6        1.0  0.06898543152017504  0.570049081812696  0.7616428990940189  1.0000
  O   O7        1.0  0.06900781563138825  0.5853305807597814  0.38399378387714994  1.0000
  O   O8        1.0  0.07037935804464412  0.3680794728362558  0.5789785696800673  1.0000
