data_image0
_chemical_formula_structural       NC9NC3OH6C8H10C7NH3Zn2C4O8
_chemical_formula_sum              "N3 C31 O9 H19 Zn2"
_cell_length_a       15.78231758774541
_cell_length_b       9.275653711864159
_cell_length_c       10.302823150593486
_cell_angle_alpha    85.74330494099307
_cell_angle_beta     90.08385050025007
_cell_angle_gamma    89.08352321082864

_space_group_name_H-M_alt    "P 1"
_space_group_IT_number       1

loop_
  _space_group_symop_operation_xyz
  'x, y, z'

loop_
  _atom_site_type_symbol
  _atom_site_label
  _atom_site_symmetry_multiplicity
  _atom_site_fract_x
  _atom_site_fract_y
  _atom_site_fract_z
  _atom_site_occupancy
  N   N1        1.0  0.7890450210453454  0.5690877305611528  0.5748557596947037  1.0000
  C   C1        1.0  0.741025705621713  0.47797653413810925  0.5986673441320374  1.0000
  C   C2        1.0  0.6814077908697741  0.36488539279905424  0.6282236586001493  1.0000
  C   C3        1.0  0.7018698162620253  0.2228246949371793  0.6652717680890967  1.0000
  C   C4        1.0  0.6255266754447762  0.15397651965306602  0.6833012596195887  1.0000
  C   C5        1.0  0.5631543471355175  0.2591176947712157  0.6559226855844627  1.0000
  C   C6        1.0  0.47017275775526496  0.23967869842501321  0.6610763024813118  1.0000
  C   C7        1.0  0.41575691723263786  0.3588693989866585  0.6298742778567519  1.0000
  C   C8        1.0  0.32764013035137735  0.34292988802119106  0.6341072785752815  1.0000
  C   C9        1.0  0.2725082769296676  0.46558850384592065  0.6019891710554  1.0000
  N   N2        1.0  0.2281952505959211  0.5641902058555295  0.576169069277553  1.0000
  C   C10       1.0  0.2932588950737136  0.20762227785715104  0.6695907749986487  1.0000
  C   C11       1.0  0.3467424163971862  0.08867800071846196  0.7007326460224452  1.0000
  C   C12       1.0  0.43467600519824684  0.10417962774991607  0.6966146611338238  1.0000
  O   O1        1.0  0.5989115570348216  0.3837236542653947  0.6233780884852695  1.0000
  H   H1        1.0  0.764599822048045  0.17491673126329443  0.6777148862021567  1.0000
  H   H2        1.0  0.6174315810879941  0.040772059746274854  0.7128391458351684  1.0000
  H   H3        1.0  0.4417698522230626  0.4641627117035551  0.602257105808544  1.0000
  H   H4        1.0  0.22521857450105812  0.19412234038939052  0.6731737847286896  1.0000
  H   H5        1.0  0.31999511484074145  0.9841045277320234  0.7281614362104403  1.0000
  H   H6        1.0  0.47429261229499803  0.009967383801085642  0.7212894633727058  1.0000
  C   C13       1.0  0.011002432968109542  0.14322327397711598  0.5743080018566766  1.0000
  C   C14       1.0  0.9911155479906779  0.22685102466538742  0.4584611313727436  1.0000
  C   C15       1.0  0.9635883872152252  0.16193102058007566  0.3476159037271134  1.0000
  C   C16       1.0  0.9572085799817003  0.011408450489879488  0.35174512891097365  1.0000
  C   C17       1.0  0.9780099049170105  0.9265830366261348  0.4650927413098736  1.0000
  C   C18       1.0  0.006245977466727165  0.9900434624568376  0.5767280038304892  1.0000
  C   C19       1.0  0.9437412774679806  0.252940509033605  0.22385550448505764  1.0000
  C   C20       1.0  0.0230067597277086  0.27389547760899985  0.14054654747779205  1.0000
  H   H7        1.0  0.08792256484602001  0.40690930824405425  0.7544852207154078  1.0000
  H   H8        1.0  0.9951728433994808  0.34362446365176463  0.4549755664372612  1.0000
  H   H9        1.0  0.9369173843045376  0.9593939137454448  0.26652661536631106  1.0000
  H   H10       1.0  0.9740913594396085  0.8101556191322119  0.4642885411172828  1.0000
  H   H11       1.0  0.01421965601490703  0.690847304091451  0.7908425501109513  1.0000
  H   H12       1.0  0.8943416347728665  0.2006110415487858  0.1672534369438421  1.0000
  H   H13       1.0  0.918024891258237  0.36039069756718084  0.24678993207948843  1.0000
  H   H14       1.0  0.07238792980403302  0.3295412211207496  0.1942938986222178  1.0000
  H   H15       1.0  0.04844132659791667  0.1677053292230808  0.11390805109194502  1.0000
  H   H16       1.0  0.0070255072948677225  0.3411327557879946  0.04988588768019375  1.0000
  C   C21       1.0  0.008624220310611271  0.5666334047657049  0.1942699377831114  1.0000
  C   C22       1.0  0.9197682924515831  0.5780743664958848  0.19220479618197417  1.0000
  C   C23       1.0  0.8755616314344461  0.583766234440293  0.0740748606818058  1.0000
  C   C24       1.0  0.9197682765032498  0.5780742725289609  0.9569038020150901  1.0000
  C   C25       1.0  0.008624219846725232  0.5666333972806059  0.9567661043751179  1.0000
  C   C26       1.0  0.05258792079658381  0.5609726609800928  0.07599482124268131  1.0000
  C   C27       1.0  0.7844713098697255  0.5954946634735401  0.07308688279538611  1.0000
  N   N3        1.0  0.7112644531687904  0.6049206646456105  0.07229283720836244  1.0000
  H   H17       1.0  0.8847246456531368  0.5825865347955363  0.28224896905292196  1.0000
  H   H18       1.0  0.884724679856658  0.5825864282580544  0.8660994323522958  1.0000
  H   H19       1.0  0.12111041159644492  0.5521498279757172  0.07673804114176463  1.0000
  Zn  Zn1       1.0  0.9157743091141363  0.5676705592841813  0.5752422325569038  1.0000
  Zn  Zn2       1.0  0.1014660001335494  0.5655956090472569  0.5757931757400676  1.0000
  C   C28       1.0  0.008654574528099467  0.5608893070774992  0.8126215718935865  1.0000
  C   C29       1.0  0.008587752248479175  0.5723786578764378  0.33841397504483894  1.0000
  C   C30       1.0  0.007140694092197863  0.8299764982217996  0.5710970478311772  1.0000
  C   C31       1.0  0.010101579050986624  0.3032897351108925  0.5799385631853222  1.0000
  O   O2        1.0  0.07904457756730403  0.5735130941011894  0.3869990928120648  1.0000
  O   O3        1.0  0.07913345218941154  0.5581789438950175  0.7644542304183215  1.0000
  O   O4        1.0  0.0779100246355335  0.7754702644309428  0.5694214698777951  1.0000
  O   O5        1.0  0.08026794169925461  0.35622178458779774  0.5820317558502541  1.0000
  O   O6        1.0  0.9369723041809616  0.777044384453289  0.5690036522518827  1.0000
  O   O7        1.0  0.9381957220007646  0.5597547962482563  0.7640363485195019  1.0000
  O   O8        1.0  0.9381068477172798  0.5750888962083442  0.38657964986386606  1.0000
  O   O9        1.0  0.9393302119036883  0.3577975763820669  0.5816124102095586  1.0000
