data_image0
_chemical_formula_structural       Co36H72C72O144
_chemical_formula_sum              "Co36 H72 C72 O144"
_cell_length_a       15.205
_cell_length_b       18.005
_cell_length_c       21.5
_cell_angle_alpha    71.20999999999998
_cell_angle_beta     84.47
_cell_angle_gamma    67.14999999999999

_space_group_name_H-M_alt    "P 1"
_space_group_IT_number       1

loop_
  _space_group_symop_operation_xyz
  'x, y, z'

loop_
  _atom_site_type_symbol
  _atom_site_label
  _atom_site_symmetry_multiplicity
  _atom_site_fract_x
  _atom_site_fract_y
  _atom_site_fract_z
  _atom_site_occupancy
  Co  Co1       1.0  0.52463  0.63577  0.73048  1.0000
  Co  Co2       1.0  0.23780999999999997  0.3490500000000001  0.5169  1.0000
  Co  Co3       1.0  0.14182  0.03117000000000001  0.60305  1.0000
  Co  Co4       1.0  0.21963  0.17517  0.52077  1.0000
  Co  Co5       1.0  0.63672  0.5926000000000005  0.60374  1.0000
  Co  Co6       1.0  0.9047700000000001  0.015789999999999915  0.8503000000000001  1.0000
  Co  Co7       1.0  0.69684  0.74029  0.06311  1.0000
  Co  Co8       1.0  0.80882  0.69777  0.9363500000000001  1.0000
  Co  Co9       1.0  0.4469299999999999  0.4908700000000001  0.8122799999999999  1.0000
  Co  Co10      1.0  0.8861000000000001  0.8422500000000002  0.85437  1.0000
  Co  Co11      1.0  0.02982  0.07364000000000001  0.72977  1.0000
  Co  Co12      1.0  0.57117  0.68248  0.18358  1.0000
  Co  Co13      1.0  0.33370000000000005  0.33328  0.66664  1.0000
  Co  Co14      1.0  0.33349999999999985  0.8334000000000001  0.6669  1.0000
  Co  Co15      1.0  0.6667000000000006  0.6666300000000001  0.8331600000000001  1.0000
  Co  Co16      1.0  0.6664  0.16668  0.83342  1.0000
  Co  Co17      1.0  0.47537  0.36423  0.26952  1.0000
  Co  Co18      1.0  0.76219  0.6509499999999999  0.4831  1.0000
  Co  Co19      1.0  0.8581800000000002  0.9688300000000001  0.39695  1.0000
  Co  Co20      1.0  0.7803699999999996  0.8248300000000007  0.47923  1.0000
  Co  Co21      1.0  0.36328  0.40739999999999993  0.39626  1.0000
  Co  Co22      1.0  0.09523  0.98421  0.1497  1.0000
  Co  Co23      1.0  0.30315999999999993  0.25971000000000005  0.9368899999999999  1.0000
  Co  Co24      1.0  0.19117999999999988  0.3022300000000002  0.06365  1.0000
  Co  Co25      1.0  0.55307  0.50913  0.18772  1.0000
  Co  Co26      1.0  0.11389999999999996  0.1577500000000001  0.14563  1.0000
  Co  Co27      1.0  0.9701800000000002  0.9263600000000001  0.27023  1.0000
  Co  Co28      1.0  0.4288300000000001  0.31751999999999997  0.81642  1.0000
  Co  Co29      1.0  0.6663  0.66672  0.33336  1.0000
  Co  Co30      1.0  0.6665  0.16660000000000003  0.3331  1.0000
  Co  Co31      1.0  0.3333  0.33337  0.16684  1.0000
  Co  Co32      1.0  0.3335999999999999  0.8333200000000002  0.16658  1.0000
  Co  Co33      1.0  0.0  0.0  0.0  1.0000
  Co  Co34      1.0  0.0  0.49999999999999994  0.0  1.0000
  Co  Co35      1.0  0.0  0.0  0.49999999999999994  1.0000
  Co  Co36      1.0  5.841357577771294e-17  0.49999999999999994  0.49999999999999994  1.0000
  H   H1        1.0  0.7896999999999998  0.6111000000000002  0.6774  1.0000
  H   H2        1.0  0.5837999999999999  0.5514000000000001  0.9178  1.0000
  H   H3        1.0  0.7484000000000001  0.7831  0.7507  1.0000
  H   H4        1.0  0.6082999999999998  0.35080000000000006  0.9075  1.0000
  H   H5        1.0  0.18369999999999986  0.8012  0.6208  1.0000
  H   H6        1.0  0.42389999999999983  0.6858000000000004  0.5571  1.0000
  H   H7        1.0  0.3542  0.5372  0.6766  1.0000
  H   H8        1.0  0.7144  0.9918000000000001  0.7592  1.0000
  H   H9        1.0  0.935  0.3174  0.1143  1.0000
  H   H10       1.0  0.48530000000000006  0.8627  0.7182  1.0000
  H   H11       1.0  0.5441999999999999  0.7273000000000001  0.9863  1.0000
  H   H12       1.0  0.8423000000000002  0.4655  0.9628  1.0000
  H   H13       1.0  0.3138  0.1297  0.6589  1.0000
  H   H14       1.0  0.6094  0.2325  0.6973  1.0000
  H   H15       1.0  0.7546  0.5521  0.0793  1.0000
  H   H16       1.0  0.4006  0.011700000000000002  0.539  1.0000
  H   H17       1.0  0.8387  0.23460000000000003  0.7067  1.0000
  H   H18       1.0  0.24739999999999995  0.9692  0.7807  1.0000
  H   H19       1.0  0.7169  0.9374000000000001  0.9326  1.0000
  H   H20       1.0  0.7226  0.1062  0.9717  1.0000
  H   H21       1.0  0.6118999999999999  0.39990000000000003  0.7316  1.0000
  H   H22       1.0  0.056900000000000006  0.4367  0.6401  1.0000
  H   H23       1.0  0.177  0.5657  0.3789  1.0000
  H   H24       1.0  0.08750000000000002  0.8813999999999999  0.7505  1.0000
  H   H25       1.0  0.4963000000000002  0.09780000000000003  0.9574  1.0000
  H   H26       1.0  0.04749999999999993  0.26980000000000004  0.5968  1.0000
  H   H27       1.0  0.9057000000000001  0.6453  0.11169999999999998  1.0000
  H   H28       1.0  0.26230000000000014  0.6594999999999999  0.7831  1.0000
  H   H29       1.0  0.4329  0.21070000000000003  0.421  1.0000
  H   H30       1.0  0.021300000000000003  0.2051  0.0085  1.0000
  H   H31       1.0  0.11090000000000004  0.0653  0.8973  1.0000
  H   H32       1.0  0.22650000000000003  0.26080000000000003  0.7718  1.0000
  H   H33       1.0  0.4351999999999999  0.41030000000000005  0.5598  1.0000
  H   H34       1.0  0.0734  0.1215  0.4181  1.0000
  H   H35       1.0  0.047300000000000016  0.31479999999999997  0.4305  1.0000
  H   H36       1.0  0.8807  0.05200000000000001  0.6543  1.0000
  H   H37       1.0  0.2102999999999998  0.38890000000000047  0.3226  1.0000
  H   H38       1.0  0.4162  0.44860000000000005  0.0822  1.0000
  H   H39       1.0  0.2515999999999999  0.2169  0.24930000000000002  1.0000
  H   H40       1.0  0.39169999999999994  0.6492  0.0925  1.0000
  H   H41       1.0  0.8163000000000001  0.19879999999999998  0.3792  1.0000
  H   H42       1.0  0.5761  0.3142  0.44289999999999996  1.0000
  H   H43       1.0  0.6458  0.4628  0.3234  1.0000
  H   H44       1.0  0.2856000000000001  0.008200000000000006  0.2408  1.0000
  H   H45       1.0  0.06500000000000004  0.6826  0.8857  1.0000
  H   H46       1.0  0.5147000000000003  0.13730000000000003  0.2818  1.0000
  H   H47       1.0  0.4557999999999999  0.2727  0.0137  1.0000
  H   H48       1.0  0.1577  0.5345  0.0372  1.0000
  H   H49       1.0  0.6862  0.8703  0.3411  1.0000
  H   H50       1.0  0.39060000000000006  0.7675  0.3027  1.0000
  H   H51       1.0  0.2453999999999999  0.44790000000000013  0.9207000000000001  1.0000
  H   H52       1.0  0.5994  0.9883000000000001  0.46099999999999997  1.0000
  H   H53       1.0  0.16129999999999992  0.7654000000000002  0.2933  1.0000
  H   H54       1.0  0.7526  0.03079999999999999  0.21930000000000002  1.0000
  H   H55       1.0  0.2831  0.0626  0.0674  1.0000
  H   H56       1.0  0.27739999999999976  0.8938000000000005  0.0283  1.0000
  H   H57       1.0  0.38809999999999983  0.6001000000000004  0.2684  1.0000
  H   H58       1.0  0.9430999999999999  0.5633000000000004  0.3599  1.0000
  H   H59       1.0  0.823  0.4343  0.6211  1.0000
  H   H60       1.0  0.9125  0.11859999999999998  0.24950000000000003  1.0000
  H   H61       1.0  0.5037  0.9022  0.0426  1.0000
  H   H62       1.0  0.9524999999999999  0.7302  0.4032  1.0000
  H   H63       1.0  0.09429999999999995  0.3547  0.8883000000000001  1.0000
  H   H64       1.0  0.7377  0.3405  0.21690000000000004  1.0000
  H   H65       1.0  0.5671000000000005  0.7893000000000002  0.579  1.0000
  H   H66       1.0  0.9787  0.7949  0.9915  1.0000
  H   H67       1.0  0.8891  0.9347  0.10270000000000001  1.0000
  H   H68       1.0  0.7734999999999999  0.7392000000000001  0.2282  1.0000
  H   H69       1.0  0.5648  0.5897  0.4402  1.0000
  H   H70       1.0  0.9265999999999995  0.8785000000000007  0.5819  1.0000
  H   H71       1.0  0.9527  0.6852  0.5695  1.0000
  H   H72       1.0  0.11929999999999992  0.9480000000000001  0.3457  1.0000
  C   C1        1.0  0.7389  0.6194  0.7056  1.0000
  C   C2        1.0  0.558  0.5551999999999999  0.8789  1.0000
  C   C3        1.0  0.7747  0.7787999999999999  0.7896000000000001  1.0000
  C   C4        1.0  0.5929  0.32180000000000003  0.8842  1.0000
  C   C5        1.0  0.1545  0.8599  0.6042  1.0000
  C   C6        1.0  0.42539999999999983  0.7004000000000002  0.5947  1.0000
  C   C7        1.0  0.36099999999999993  0.48080000000000006  0.6944  1.0000
  C   C8        1.0  0.7341  0.018500000000000044  0.7825  1.0000
  C   C9        1.0  0.9798  0.3403  0.0947  1.0000
  C   C10       1.0  0.5165  0.804  0.7316  1.0000
  C   C11       1.0  0.5962999999999999  0.7150000000000001  0.9596  1.0000
  C   C12       1.0  0.8189  0.5236  0.9414999999999999  1.0000
  C   C13       1.0  0.3068  0.18619999999999998  0.6409  1.0000
  C   C14       1.0  0.5484999999999999  0.25600000000000006  0.7123  1.0000
  C   C15       1.0  0.7061999999999999  0.5617000000000004  0.10919999999999999  1.0000
  C   C16       1.0  0.3593  0.9904000000000001  0.5667  1.0000
  C   C17       1.0  0.8251  0.19680000000000003  0.7436  1.0000
  C   C18       1.0  0.24520000000000003  0.961  0.7404  1.0000
  C   C19       1.0  0.7263000000000001  0.8805  0.9512  1.0000
  C   C20       1.0  0.7828999999999999  0.07960000000000003  0.9574  1.0000
  C   C21       1.0  0.6048999999999998  0.4565000000000003  0.7142  1.0000
  C   C22       1.0  0.11729999999999982  0.4124000000000004  0.6248  1.0000
  C   C23       1.0  0.1615  0.5268  0.41379999999999995  1.0000
  C   C24       1.0  0.03760000000000001  0.8923999999999999  0.7791  1.0000
  C   C25       1.0  0.5101  0.13640000000000005  0.9212999999999999  1.0000
  C   C26       1.0  0.05879999999999999  0.2126  0.6165  1.0000
  C   C27       1.0  0.9049  0.6333  0.0728  1.0000
  C   C28       1.0  0.3086  0.6797000000000001  0.7621  1.0000
  C   C29       1.0  0.37800000000000006  0.2239  0.4452  1.0000
  C   C30       1.0  0.027500000000000004  0.1488  0.0265  1.0000
  C   C31       1.0  0.0706  0.0622  0.8691  1.0000
  C   C32       1.0  0.2647999999999999  0.26789999999999997  0.7990000000000002  1.0000
  C   C33       1.0  0.3997000000000001  0.4  0.533  1.0000
  C   C34       1.0  0.10539999999999998  0.1129  0.45610000000000006  1.0000
  C   C35       1.0  0.06729999999999998  0.34540000000000004  0.44959999999999994  1.0000
  C   C36       1.0  0.9302  0.04600000000000004  0.625  1.0000
  C   C37       1.0  0.2611  0.3806  0.2944  1.0000
  C   C38       1.0  0.44200000000000006  0.4448  0.1211  1.0000
  C   C39       1.0  0.2252999999999999  0.22120000000000017  0.2104  1.0000
  C   C40       1.0  0.4071  0.6782  0.1158  1.0000
  C   C41       1.0  0.8455  0.1401  0.3958  1.0000
  C   C42       1.0  0.5745999999999999  0.2996  0.4053  1.0000
  C   C43       1.0  0.639  0.5192000000000001  0.3056  1.0000
  C   C44       1.0  0.2659  0.9815000000000002  0.21750000000000003  1.0000
  C   C45       1.0  0.02019999999999998  0.6597000000000001  0.9052999999999999  1.0000
  C   C46       1.0  0.4835  0.19600000000000004  0.2684  1.0000
  C   C47       1.0  0.40369999999999995  0.28500000000000003  0.0404  1.0000
  C   C48       1.0  0.1811  0.47639999999999993  0.0585  1.0000
  C   C49       1.0  0.6932  0.8138  0.3591  1.0000
  C   C50       1.0  0.45150000000000007  0.744  0.2877  1.0000
  C   C51       1.0  0.29379999999999984  0.4383  0.8908000000000001  1.0000
  C   C52       1.0  0.6407000000000002  0.009599999999999996  0.4333  1.0000
  C   C53       1.0  0.1749  0.8032  0.2564  1.0000
  C   C54       1.0  0.7548  0.039  0.2596  1.0000
  C   C55       1.0  0.27369999999999994  0.11950000000000009  0.0488  1.0000
  C   C56       1.0  0.2170999999999998  0.9204000000000004  0.0426  1.0000
  C   C57       1.0  0.39510000000000006  0.5435  0.2858  1.0000
  C   C58       1.0  0.8826999999999999  0.5876000000000002  0.3752  1.0000
  C   C59       1.0  0.8385  0.47319999999999995  0.5862  1.0000
  C   C60       1.0  0.9624  0.1076  0.2209  1.0000
  C   C61       1.0  0.48989999999999984  0.8636000000000005  0.0787  1.0000
  C   C62       1.0  0.9412  0.7874  0.3835  1.0000
  C   C63       1.0  0.0951  0.3667  0.9272  1.0000
  C   C64       1.0  0.6914  0.32030000000000003  0.2379  1.0000
  C   C65       1.0  0.6220000000000001  0.7760999999999999  0.5548  1.0000
  C   C66       1.0  0.9725000000000001  0.8512  0.9735000000000001  1.0000
  C   C67       1.0  0.9293999999999999  0.9378  0.1309  1.0000
  C   C68       1.0  0.7351999999999999  0.7321000000000003  0.201  1.0000
  C   C69       1.0  0.6003  0.6  0.467  1.0000
  C   C70       1.0  0.8945999999999998  0.8871000000000001  0.5439  1.0000
  C   C71       1.0  0.9327000000000001  0.6546  0.5504  1.0000
  C   C72       1.0  0.06979999999999968  0.9540000000000007  0.375  1.0000
  O   O1        1.0  0.013299999999999977  0.42030000000000006  0.445  1.0000
  O   O2        1.0  0.3113999999999996  0.9067000000000008  0.7284  1.0000
  O   O3        1.0  0.35440000000000005  0.7623999999999999  0.602  1.0000
  O   O4        1.0  0.3305  0.45189999999999997  0.6597  1.0000
  O   O5        1.0  0.9969999999999999  0.11809999999999998  0.994  1.0000
  O   O6        1.0  0.6792000000000001  0.0873  0.7791  1.0000
  O   O7        1.0  0.3368999999999999  0.21450000000000005  0.6755  1.0000
  O   O8        1.0  0.6523999999999999  0.2488999999999999  0.8883000000000001  1.0000
  O   O9        1.0  0.9484999999999998  0.42010000000000014  0.0703  1.0000
  O   O10       1.0  0.976  0.5722  0.06189999999999999  1.0000
  O   O11       1.0  0.38889999999999997  0.9136000000000001  0.5968  1.0000
  O   O12       1.0  0.7499  0.6296  0.7577  1.0000
  O   O13       1.0  0.9130000000000001  0.037099999999999966  0.5751  1.0000
  O   O14       1.0  0.7494  0.22329999999999997  0.7671  1.0000
  O   O15       1.0  0.5821  0.7019000000000001  0.9082  1.0000
  O   O16       1.0  0.2811  0.7552000000000001  0.7378  1.0000
  O   O17       1.0  0.08280000000000008  0.5553999999999999  0.43500000000000005  1.0000
  O   O18       1.0  0.3462  0.2952  0.4562  1.0000
  O   O19       1.0  0.5855999999999999  0.11120000000000008  0.8986999999999999  1.0000
  O   O20       1.0  0.6715  0.5038000000000001  0.1335  1.0000
  O   O21       1.0  0.8519  0.046300000000000036  0.9974  1.0000
  O   O22       1.0  0.8904  0.12149999999999997  0.7637  1.0000
  O   O23       1.0  0.33849999999999997  0.16920000000000002  0.4657  1.0000
  O   O24       1.0  0.7491000000000001  0.5537  0.902  1.0000
  O   O25       1.0  0.6897  0.858  0.006799999999999999  1.0000
  O   O26       1.0  0.5865  0.7803999999999999  0.7631  1.0000
  O   O27       1.0  0.014999999999999973  0.9622  0.7906  1.0000
  O   O28       1.0  0.2484  0.24839999999999998  0.858  1.0000
  O   O29       1.0  0.081  0.889  0.5678  1.0000
  O   O30       1.0  0.6806  0.6292  0.1222  1.0000
  O   O31       1.0  0.5113  0.5099  0.8824  1.0000
  O   O32       1.0  0.021399999999999888  0.1928000000000002  0.6708  1.0000
  O   O33       1.0  0.004200000000000011  0.8365  0.7996  1.0000
  O   O34       1.0  0.18570000000000003  0.3799  0.664  1.0000
  O   O35       1.0  0.16939999999999997  0.010800000000000023  0.7031  1.0000
  O   O36       1.0  0.4817  0.2874  0.6706  1.0000
  O   O37       1.0  0.8338000000000002  0.6783  0.0341  1.0000
  O   O38       1.0  0.4988  0.6553  0.6326  1.0000
  O   O39       1.0  0.2253  0.45400000000000007  0.43069999999999997  1.0000
  O   O40       1.0  0.41780000000000006  0.4174  0.4753  1.0000
  O   O41       1.0  0.8203  0.8226  0.7853  1.0000
  O   O42       1.0  0.44340000000000007  0.21260000000000007  0.9015  1.0000
  O   O43       1.0  0.0851  0.08399999999999996  0.8095  1.0000
  O   O44       1.0  0.15499999999999997  0.15600000000000003  0.4519  1.0000
  O   O45       1.0  0.09519999999999999  0.058200000000000016  0.5085  1.0000
  O   O46       1.0  0.6430999999999999  0.4759000000000002  0.662  1.0000
  O   O47       1.0  0.7905  0.07920000000000002  0.8968  1.0000
  O   O48       1.0  0.14800000000000002  0.30979999999999996  0.4794  1.0000
  O   O49       1.0  0.7593999999999995  0.7277000000000008  0.8419  1.0000
  O   O50       1.0  0.6712  0.7133999999999999  0.9789000000000001  1.0000
  O   O51       1.0  0.5725000000000001  0.6058999999999999  0.826  1.0000
  O   O52       1.0  0.11040000000000001  0.16219999999999998  0.5862  1.0000
  O   O53       1.0  0.0684  0.1064  0.0854  1.0000
  O   O54       1.0  0.007399999999999999  0.0485  0.6446  1.0000
  O   O55       1.0  0.39350000000000007  0.6217  0.7637  1.0000
  O   O56       1.0  0.26760000000000006  0.22350000000000003  0.5841  1.0000
  O   O57       1.0  0.3285999999999999  0.29710000000000036  0.7701  1.0000
  O   O58       1.0  0.6596  0.6196  0.6882  1.0000
  O   O59       1.0  0.19319999999999962  0.9027000000000007  0.6209  1.0000
  O   O60       1.0  0.5168  0.3590999999999999  0.8531  1.0000
  O   O61       1.0  0.3383  0.36920000000000003  0.5622  1.0000
  O   O62       1.0  0.8161999999999999  0.973  0.8125  1.0000
  O   O63       1.0  0.12299999999999994  0.4152000000000002  0.5641  1.0000
  O   O64       1.0  0.8606000000000001  0.567  0.9547  1.0000
  O   O65       1.0  0.5443  0.25200000000000006  0.7718  1.0000
  O   O66       1.0  0.27470000000000006  0.04230000000000003  0.5717  1.0000
  O   O67       1.0  0.5577  0.5044  0.7467  1.0000
  O   O68       1.0  0.0039000000000000003  0.035800000000000005  0.8949999999999999  1.0000
  O   O69       1.0  0.4726999999999999  0.7662000000000002  0.7113  1.0000
  O   O70       1.0  0.0591  0.2912  0.0957  1.0000
  O   O71       1.0  0.4004  0.4421  0.7511  1.0000
  O   O72       1.0  0.7761000000000001  0.8281999999999999  0.9190000000000002  1.0000
  O   O73       1.0  0.9866999999999998  0.5797000000000008  0.555  1.0000
  O   O74       1.0  0.6886  0.0933  0.2716  1.0000
  O   O75       1.0  0.6456  0.2376  0.398  1.0000
  O   O76       1.0  0.6695000000000001  0.5480999999999999  0.3403  1.0000
  O   O77       1.0  0.0030000000000000413  0.8819  0.006000000000000002  1.0000
  O   O78       1.0  0.3207999999999999  0.9127  0.2209  1.0000
  O   O79       1.0  0.6631000000000001  0.7855  0.3245  1.0000
  O   O80       1.0  0.34759999999999996  0.7511  0.11169999999999998  1.0000
  O   O81       1.0  0.05150000000000005  0.5798999999999999  0.9297  1.0000
  O   O82       1.0  0.023999999999999952  0.42780000000000007  0.9381  1.0000
  O   O83       1.0  0.6111  0.08639999999999999  0.4032  1.0000
  O   O84       1.0  0.25009999999999977  0.3704  0.2423  1.0000
  O   O85       1.0  0.08699999999999991  0.9629000000000001  0.42490000000000006  1.0000
  O   O86       1.0  0.2505999999999997  0.7767000000000004  0.2329  1.0000
  O   O87       1.0  0.4178999999999999  0.2981000000000002  0.0918  1.0000
  O   O88       1.0  0.7189  0.24480000000000002  0.2622  1.0000
  O   O89       1.0  0.9172  0.44459999999999994  0.565  1.0000
  O   O90       1.0  0.6538  0.7048  0.5438  1.0000
  O   O91       1.0  0.4144  0.8888  0.1013  1.0000
  O   O92       1.0  0.32849999999999996  0.4962  0.8665  1.0000
  O   O93       1.0  0.14809999999999984  0.9537000000000004  0.002600000000000002  1.0000
  O   O94       1.0  0.10959999999999966  0.8785000000000008  0.23629999999999998  1.0000
  O   O95       1.0  0.6614999999999999  0.8308000000000003  0.5343  1.0000
  O   O96       1.0  0.2508999999999998  0.4463  0.098  1.0000
  O   O97       1.0  0.31029999999999996  0.14200000000000002  0.9932  1.0000
  O   O98       1.0  0.4134999999999996  0.2196  0.23689999999999997  1.0000
  O   O99       1.0  0.985  0.037800000000000014  0.2094  1.0000
  O   O100      1.0  0.7515999999999997  0.7516000000000005  0.142  1.0000
  O   O101      1.0  0.919  0.111  0.4322  1.0000
  O   O102      1.0  0.3194000000000001  0.37079999999999996  0.8778  1.0000
  O   O103      1.0  0.4887  0.49010000000000004  0.11759999999999998  1.0000
  O   O104      1.0  0.9785999999999995  0.8072000000000009  0.3292  1.0000
  O   O105      1.0  0.9958  0.16350000000000003  0.2004  1.0000
  O   O106      1.0  0.8142999999999999  0.6201000000000003  0.336  1.0000
  O   O107      1.0  0.8305999999999999  0.9892000000000001  0.2969  1.0000
  O   O108      1.0  0.5183000000000001  0.7125999999999999  0.3294  1.0000
  O   O109      1.0  0.16620000000000004  0.3217  0.9658999999999999  1.0000
  O   O110      1.0  0.5011999999999999  0.3447000000000003  0.3674  1.0000
  O   O111      1.0  0.7747  0.546  0.5693  1.0000
  O   O112      1.0  0.5821999999999999  0.5826  0.5247  1.0000
  O   O113      1.0  0.1797  0.17740000000000003  0.21469999999999997  1.0000
  O   O114      1.0  0.5566  0.7874  0.09850000000000002  1.0000
  O   O115      1.0  0.9148999999999999  0.9159999999999999  0.1905  1.0000
  O   O116      1.0  0.8449999999999995  0.8440000000000009  0.5481  1.0000
  O   O117      1.0  0.9048000000000002  0.9417999999999999  0.4915  1.0000
  O   O118      1.0  0.35689999999999983  0.5241000000000005  0.338  1.0000
  O   O119      1.0  0.20949999999999974  0.9208000000000004  0.1032  1.0000
  O   O120      1.0  0.852  0.6902000000000001  0.5206  1.0000
  O   O121      1.0  0.2406  0.2723  0.1581  1.0000
  O   O122      1.0  0.32880000000000004  0.2866  0.0211  1.0000
  O   O123      1.0  0.42749999999999994  0.3941  0.174  1.0000
  O   O124      1.0  0.8895999999999996  0.8378000000000008  0.41379999999999995  1.0000
  O   O125      1.0  0.9316000000000001  0.8935999999999998  0.9146000000000001  1.0000
  O   O126      1.0  0.9926000000000001  0.9515  0.3554  1.0000
  O   O127      1.0  0.6065  0.3783  0.23629999999999998  1.0000
  O   O128      1.0  0.7324  0.7765  0.41589999999999994  1.0000
  O   O129      1.0  0.6714  0.7029  0.2299  1.0000
  O   O130      1.0  0.34040000000000004  0.38040000000000007  0.3118  1.0000
  O   O131      1.0  0.8068  0.0973  0.3791  1.0000
  O   O132      1.0  0.4832000000000001  0.6409  0.1469  1.0000
  O   O133      1.0  0.6617  0.6308  0.4378000000000001  1.0000
  O   O134      1.0  0.18379999999999996  0.027000000000000017  0.1875  1.0000
  O   O135      1.0  0.8769999999999999  0.5848000000000004  0.43590000000000007  1.0000
  O   O136      1.0  0.1393999999999999  0.4330000000000002  0.0453  1.0000
  O   O137      1.0  0.4557  0.748  0.2282  1.0000
  O   O138      1.0  0.7252999999999998  0.9577000000000001  0.4283  1.0000
  O   O139      1.0  0.4423  0.4956  0.2533  1.0000
  O   O140      1.0  0.9960999999999999  0.9642000000000001  0.105  1.0000
  O   O141      1.0  0.5273  0.2338  0.2887  1.0000
  O   O142      1.0  0.9409  0.7087999999999999  0.9043  1.0000
  O   O143      1.0  0.5996  0.5579  0.24890000000000004  1.0000
  O   O144      1.0  0.22390000000000002  0.17179999999999998  0.081  1.0000
