data_image0
_chemical_formula_structural       NC5NC3OH4C7NH5C6ClH5Zn2C4O8
_chemical_formula_sum              "N3 C25 O9 H14 Cl1 Zn2"
_cell_length_a       13.84702359539666
_cell_length_b       9.275154477615127
_cell_length_c       10.30297407846105
_cell_angle_alpha    85.7869106659326
_cell_angle_beta     89.98558386727187
_cell_angle_gamma    89.43463511314383

_space_group_name_H-M_alt    "P 1"
_space_group_IT_number       1

loop_
  _space_group_symop_operation_xyz
  'x, y, z'

loop_
  _atom_site_type_symbol
  _atom_site_label
  _atom_site_symmetry_multiplicity
  _atom_site_fract_x
  _atom_site_fract_y
  _atom_site_fract_z
  _atom_site_occupancy
  N   N1        1.0  0.8989332513392372  0.5779343888606017  0.5732964439040984  1.0000
  C   C1        1.0  0.8268463795152202  0.5692669981159042  0.6300603942491365  1.0000
  C   C2        1.0  0.7370711905313023  0.5584742659889075  0.7007434727522592  1.0000
  C   C3        1.0  0.6494182198169542  0.5689007298508375  0.6324585447572842  1.0000
  C   C4        1.0  0.561624845831402  0.5585954086694159  0.6999497382766564  1.0000
  C   C5        1.0  0.47170293577502126  0.5693302631537862  0.6296458033823362  1.0000
  N   N2        1.0  0.3994173549504456  0.5779602619855668  0.57312704466929  1.0000
  C   C6        1.0  0.5614792955263489  0.5378325237179621  0.835928733309953  1.0000
  C   C7        1.0  0.6487521017942504  0.5273963407852036  0.9042748987000117  1.0000
  C   C8        1.0  0.7368613433621948  0.5376352486956945  0.8372199957372739  1.0000
  O   O1        1.0  0.8238546355578373  0.527181249691931  0.9056844456200901  1.0000
  H   H1        1.0  0.6495355591205414  0.5849861445305053  0.527113720386998  1.0000
  H   H2        1.0  0.49397811487015897  0.5297216894497094  0.8890474082007249  1.0000
  H   H3        1.0  0.6478561980889447  0.5113428309839603  0.009411417980374702  1.0000
  H   H4        1.0  0.825485898230511  0.5121566578235113  0.004081689558275927  1.0000
  C   C9        1.0  0.15197449292420218  0.15455817108151026  0.5717084664309818  1.0000
  C   C10       1.0  0.12546657039091724  0.23773588908493684  0.4572509977890855  1.0000
  C   C11       1.0  0.09110352971206104  0.17169569118313754  0.3488596464989951  1.0000
  C   C12       1.0  0.08268260848757114  0.021574730960634444  0.353649275198074  1.0000
  C   C13       1.0  0.11008559156350886  0.937189384268101  0.4654972694294018  1.0000
  C   C14       1.0  0.1463854143782104  0.0013254001761240368  0.5747262110973519  1.0000
  C   C15       1.0  0.06331079832975894  0.2584551551304431  0.23302299368644858  1.0000
  N   N3        1.0  0.04097315151918224  0.32819385850141725  0.1399199959171531  1.0000
  H   H5        1.0  0.17069953005500826  0.23123018715719226  0.8903749461264281  1.0000
  H   H6        1.0  0.12941051332705555  0.3546954933744817  0.45339759774191135  1.0000
  H   H7        1.0  0.055757876076939286  0.969446766014751  0.2703438884167164  1.0000
  H   H8        1.0  0.10501449532275499  0.8207215260959803  0.4653847332455425  1.0000
  H   H9        1.0  0.16309160871849326  0.7025560120689996  0.7882404085875027  1.0000
  C   C16       1.0  0.1491799594979044  0.5779417938530267  0.19197482588858006  1.0000
  C   C17       1.0  0.13336984739475488  0.4281934092927393  0.20068051220956828  1.0000
  C   C18       1.0  0.12552535055378874  0.3538923395762479  0.08804324508537699  1.0000
  C   C19       1.0  0.13336989004905786  0.42819349072033486  0.9655726135140239  1.0000
  C   C20       1.0  0.14917995752582147  0.5779417194297235  0.9544598446976048  1.0000
  C   C21       1.0  0.15700796350530455  0.6520859824360503  0.06831104150470502  1.0000
  Cl  Cl1       1.0  0.10577476773741279  0.16682103222277367  0.10042225822628947  1.0000
  H   H10       1.0  0.1551359126907308  0.6343494256911426  0.5159984830114226  1.0000
  H   H11       1.0  0.1270818097485742  0.3686349798241404  0.2946681966660398  1.0000
  H   H12       1.0  0.12708187736822188  0.3686349592546065  0.8794672304959696  1.0000
  H   H13       1.0  0.1692011531719291  0.7675764312550319  0.06066862990051436  1.0000
  H   H14       1.0  0.1551357290117039  0.6343494129228902  0.6229708525467865  1.0000
  Zn  Zn1       1.0  0.04336217633939499  0.5779379955362014  0.5732550310963096  1.0000
  Zn  Zn2       1.0  0.2549884837567158  0.5779448581514852  0.5731790107022581  1.0000
  C   C22       1.0  0.1492157014139328  0.572198033042829  0.8103133539402575  1.0000
  C   C23       1.0  0.14913725762746655  0.5836866398867855  0.3361208209355056  1.0000
  C   C24       1.0  0.14743689430213805  0.8412683500233622  0.5689823065990156  1.0000
  C   C25       1.0  0.15091600395950966  0.3146145906830886  0.577451931345085  1.0000
  O   O2        1.0  0.22943404877193596  0.5856109770145705  0.3844686619035206  1.0000
  O   O3        1.0  0.22953838807895566  0.5702778168103715  0.7619074376538062  1.0000
  O   O4        1.0  0.22810089620828183  0.7875555005955696  0.5670309152000965  1.0000
  O   O5        1.0  0.2308714683608124  0.3683333035408789  0.5793450870775383  1.0000
  O   O6        1.0  0.06747911951761565  0.787549550146035  0.5670889547401485  1.0000
  O   O7        1.0  0.06891659995035826  0.5702735985832279  0.7619654141446396  1.0000
  O   O8        1.0  0.068812261039227  0.5856067085451253  0.38452507733218666  1.0000
  O   O9        1.0  0.07024968069221793  0.36832902475915447  0.579401599805015  1.0000
