data_image0
_chemical_formula_structural       NC5NC3F3CH3C9H8C6H6Zn2C4O8
_chemical_formula_sum              "N2 C28 F3 H17 Zn2 O8"
_cell_length_a       13.85151926108384
_cell_length_b       9.275152443626249
_cell_length_c       10.681121600428286
_cell_angle_alpha    85.36323627709002
_cell_angle_beta     89.99987223705872
_cell_angle_gamma    90.57354708821606

_space_group_name_H-M_alt    "P 1"
_space_group_IT_number       1

loop_
  _space_group_symop_operation_xyz
  'x, y, z'

loop_
  _atom_site_type_symbol
  _atom_site_label
  _atom_site_symmetry_multiplicity
  _atom_site_fract_x
  _atom_site_fract_y
  _atom_site_fract_z
  _atom_site_occupancy
  N   N1        1.0  0.9196669103772657  0.5787933733455937  0.6139347924579117  1.0000
  C   C1        1.0  0.8472764216352213  0.569710541517898  0.668226921824209  1.0000
  C   C2        1.0  0.7572169563234773  0.558410253147278  0.7357740974717555  1.0000
  C   C3        1.0  0.6697528398108517  0.5676346309488169  0.6701379504040625  1.0000
  C   C4        1.0  0.5821649667314908  0.558410239997432  0.7357740800862762  1.0000
  C   C5        1.0  0.49225716962408544  0.5697105576727528  0.6682270034924727  1.0000
  N   N2        1.0  0.4199887245098002  0.5787933354446664  0.6139348841786498  1.0000
  C   C6        1.0  0.5820252558302857  0.5389631800010992  0.867202278692243  1.0000
  C   C7        1.0  0.6694770569621178  0.5265479754967843  0.9339443805850313  1.0000
  C   C8        1.0  0.6693724057713017  0.5109658325545365  0.07560790652542171  1.0000
  F   F1        1.0  0.7498051018720615  0.4361271555315327  0.12065870733082595  1.0000
  F   F2        1.0  0.5879362870060256  0.436127124922251  0.12065879368186117  1.0000
  F   F3        1.0  0.6702829565790871  0.6468235190552463  0.12012982659679317  1.0000
  C   C9        1.0  0.7570955820325012  0.5389630847171811  0.8672022960188936  1.0000
  H   H1        1.0  0.6698549987609125  0.582851486110177  0.5683810976194295  1.0000
  H   H2        1.0  0.5138672050701707  0.5337835057562645  0.9173003210317208  1.0000
  H   H3        1.0  0.8251839580470172  0.5337834248313427  0.9173002856217154  1.0000
  C   C10       1.0  0.16698451142939355  0.15516107610479346  0.6152133356063367  1.0000
  C   C11       1.0  0.13215803261022363  0.2379004680828516  0.5088228494603291  1.0000
  C   C12       1.0  0.10630548952125808  0.1724591139601348  0.4004404689309571  1.0000
  C   C13       1.0  0.11487349186239708  0.023117174327836665  0.39630263541073574  1.0000
  C   C14       1.0  0.1478121223912494  0.9386896354780115  0.5017939839613204  1.0000
  C   C15       1.0  0.17268028289845705  0.00241459447844772  0.6126671292218422  1.0000
  C   C16       1.0  0.08871768331892985  0.95596765678341  0.2840658640935414  1.0000
  C   C17       1.0  0.06681830566604076  0.8997122953053757  0.19008516559348632  1.0000
  C   C18       1.0  0.04024773962022234  0.8314443647722822  0.07605607031998929  1.0000
  H   H4        1.0  0.30570589676904625  0.23681254173905522  0.8653156756607029  1.0000
  H   H5        1.0  0.12707254109213317  0.3544179541061758  0.5084289294747324  1.0000
  H   H6        1.0  0.08049380928862897  0.23869887238266663  0.31933406358778926  1.0000
  H   H7        1.0  0.15187683039603117  0.8223796052049078  0.498300483066992  1.0000
  H   H8        1.0  0.26298242961354795  0.7071152071806577  0.7837287324025131  1.0000
  H   H9        1.0  0.057896496996830984  0.7147225363170077  0.08775540853919273  1.0000
  H   H10       1.0  0.9616717397966423  0.8440269298287145  0.05891193617510183  1.0000
  H   H11       1.0  0.08101780071895394  0.8837928911492817  0.9949953996847998  1.0000
  C   C19       1.0  0.16983241446334282  0.578787798705388  0.24619502033697716  1.0000
  C   C20       1.0  0.10019303139190441  0.4985555076337254  0.18501363634145096  1.0000
  C   C21       1.0  0.10019297173845847  0.4985556001347087  0.05413149611056523  1.0000
  C   C22       1.0  0.16983233904485526  0.5787878694216355  0.9816854558007955  1.0000
  C   C23       1.0  0.23941424198651198  0.6589536719515969  0.04286645925272192  1.0000
  C   C24       1.0  0.23941422948448876  0.6589536495820212  0.17375875798299156  1.0000
  H   H12       1.0  0.2402562961717265  0.6599246903340936  0.5392089407166085  1.0000
  H   H13       1.0  0.04560639533334455  0.43566564594393725  0.2382394598575366  1.0000
  H   H14       1.0  0.04560637562735015  0.4356657138497206  0.00973543042793068  1.0000
  H   H15       1.0  0.2940080068716837  0.7218518209060217  0.9896849462004877  1.0000
  H   H16       1.0  0.2940079578906194  0.7218517703346983  0.2181093138368653  1.0000
  H   H17       1.0  0.24025659410049605  0.6599241877251607  0.6772799165136543  1.0000
  Zn  Zn1       1.0  0.06404895267703714  0.5787895111908772  0.6139420486273317  1.0000
  Zn  Zn2       1.0  0.2756065856507881  0.5787854309121838  0.6139378739805896  1.0000
  C   C25       1.0  0.1697915898981904  0.5730408032879933  0.842679301835222  1.0000
  C   C26       1.0  0.16986627086899403  0.5845359589822168  0.38520073816994516  1.0000
  C   C27       1.0  0.1715986856709859  0.8422656161113992  0.608158143499065  1.0000
  C   C28       1.0  0.16805909125461027  0.31530941294461595  0.6197219684814141  1.0000
  O   O1        1.0  0.25016261025006137  0.5864572520168156  0.4318507615645724  1.0000
  O   O2        1.0  0.2500625915176107  0.571115325120733  0.7960257527597803  1.0000
  O   O3        1.0  0.25152076192745293  0.7885177663090379  0.6066482536407638  1.0000
  O   O4        1.0  0.24870436771931104  0.3690548211496647  0.621228166757859  1.0000
  O   O5        1.0  0.09095109841428717  0.7885201209563593  0.6066517558448947  1.0000
  O   O6        1.0  0.0894929396518065  0.5711194129852131  0.7960291829834318  1.0000
  O   O7        1.0  0.08959295811059764  0.5864612896099763  0.4318526863167143  1.0000
  O   O8        1.0  0.0881347155065284  0.3690588484246344  0.6212301854305637  1.0000
