data_image0
_chemical_formula_structural       NC9NC3OH6C6NO2H4C6NCOCH7Zn2C4O8
_chemical_formula_sum              "N4 C30 O12 H17 Zn2"
_cell_length_a       15.78231758774541
_cell_length_b       9.273392599741051
_cell_length_c       10.300272075376752
_cell_angle_alpha    85.66434630960563
_cell_angle_beta     90.08212328067073
_cell_angle_gamma    89.0365174922554

_space_group_name_H-M_alt    "P 1"
_space_group_IT_number       1

loop_
  _space_group_symop_operation_xyz
  'x, y, z'

loop_
  _atom_site_type_symbol
  _atom_site_label
  _atom_site_symmetry_multiplicity
  _atom_site_fract_x
  _atom_site_fract_y
  _atom_site_fract_z
  _atom_site_occupancy
  N   N1        1.0  0.7883083671752491  0.5701610475852665  0.5729985926492496  1.0000
  C   C1        1.0  0.7403327614489539  0.4790101578342597  0.5969018832649295  1.0000
  C   C2        1.0  0.6807691010504592  0.3658697472923893  0.6265720274874378  1.0000
  C   C3        1.0  0.7012992799127342  0.22374718985147538  0.6637631037631038  1.0000
  C   C4        1.0  0.6249891677528768  0.1548690063793386  0.681861902993772  1.0000
  C   C5        1.0  0.5625663974211488  0.26005594882141425  0.6543775284692215  1.0000
  C   C6        1.0  0.4695941325448328  0.24060845557447963  0.6595507313687314  1.0000
  C   C7        1.0  0.41512111228406595  0.3598511024774311  0.6282287234720092  1.0000
  C   C8        1.0  0.3270119711589406  0.3439046215086279  0.6324777862024762  1.0000
  C   C9        1.0  0.27182127445570686  0.46661669824558333  0.6002362021784904  1.0000
  N   N2        1.0  0.22746094573584638  0.5652613764254144  0.5743168408696802  1.0000
  C   C10       1.0  0.29269564644735213  0.20853801690521714  0.6680975070441801  1.0000
  C   C11       1.0  0.34623622922237524  0.08954189915046729  0.6993591144702902  1.0000
  C   C12       1.0  0.4341623823286533  0.10505030519626815  0.6952255084709458  1.0000
  O   O1        1.0  0.5982638285123743  0.3847161859506658  0.6217075173705255  1.0000
  H   H1        1.0  0.7640522703001102  0.1758183844256569  0.6762544214919586  1.0000
  H   H2        1.0  0.6169483828750458  0.04161524634773683  0.7115137198723727  1.0000
  H   H3        1.0  0.44108353541936285  0.4651903251409896  0.6005055433798345  1.0000
  H   H4        1.0  0.22466180146647688  0.19503217702153378  0.6716941198828634  1.0000
  H   H5        1.0  0.319539094189085  0.9849228299190024  0.7268931880921516  1.0000
  H   H6        1.0  0.47382418598267784  0.010796996662222566  0.7199951526300459  1.0000
  C   C13       1.0  0.010471857408907992  0.14415400246839938  0.5728488671332408  1.0000
  C   C14       1.0  0.9996827603887346  0.22765441786460425  0.4541910075190387  1.0000
  C   C15       1.0  0.9814155235043499  0.16279489345129283  0.339815097152546  1.0000
  C   C16       1.0  0.9733326481966451  0.012468719085546595  0.3409063917284838  1.0000
  C   C17       1.0  0.9854435511583451  0.9277854446903804  0.4586626631843371  1.0000
  C   C18       1.0  0.005305610162546377  0.9912572148806555  0.5744777547512789  1.0000
  N   N3        1.0  0.9537468961169492  0.9462075603505893  0.22271870590521892  1.0000
  O   O2        1.0  0.9426300702444896  0.029462407319682752  0.1073961679689086  1.0000
  O   O3        1.0  0.9462848578530542  0.812357505199514  0.2229036234006767  1.0000
  H   H7        1.0  0.993210250349793  0.22073669130701434  0.8915186946352334  1.0000
  H   H8        1.0  0.972758537396388  0.2308339713504708  0.2505369251472107  1.0000
  H   H9        1.0  0.9813506083102969  0.8112286993223149  0.4595747582229115  1.0000
  H   H10       1.0  0.9965704227978451  0.6932087970421882  0.7898565957090997  1.0000
  C   C19       1.0  0.007894790703960822  0.5678520231050697  0.19231089603750462  1.0000
  C   C20       1.0  0.9209629331396123  0.602939727948343  0.18867711850192093  1.0000
  C   C21       1.0  0.8774016665592659  0.6225661833743912  0.06943597721078021  1.0000
  C   C22       1.0  0.9209735036713157  0.6026107881898908  0.9535425529362986  1.0000
  C   C23       1.0  0.007882700682679596  0.567559178236866  0.955015785036978  1.0000
  C   C24       1.0  0.050953250306502856  0.5509016077672009  0.07490391162295662  1.0000
  N   N4        1.0  0.7881143748356224  0.6562697010397973  0.06424979757322036  1.0000
  C   C25       1.0  0.745501851893343  0.7465263042796637  0.15174811534329846  1.0000
  O   O4        1.0  0.787092105882715  0.8232010808002361  0.2242854982363598  1.0000
  C   C26       1.0  0.6509775947630534  0.7581888012740956  0.15037253946247753  1.0000
  H   H11       1.0  0.8867969166963527  0.6121774255581596  0.2787348931715474  1.0000
  H   H12       1.0  0.8867211960597401  0.6158057786721496  0.8620953579891103  1.0000
  H   H13       1.0  0.11800606386261187  0.5238785195186775  0.07689502511518498  1.0000
  H   H14       1.0  0.7529296470501351  0.6206948865879585  0.9871175687610765  1.0000
  H   H15       1.0  0.62349731973669  0.6507129429742622  0.1377050354371987  1.0000
  H   H16       1.0  0.6275249358912584  0.7969746469887202  0.24342201964856924  1.0000
  H   H17       1.0  0.6301480674701855  0.8355017809918646  0.0685972021538741  1.0000
  Zn  Zn1       1.0  0.9150383348626009  0.5687432527245782  0.5733864963440227  1.0000
  Zn  Zn2       1.0  0.10073102118151556  0.5666673951929553  0.5739395303984016  1.0000
  C   C27       1.0  0.007918116440543075  0.5618685858851511  0.8108371488248411  1.0000
  C   C28       1.0  0.007853256260907706  0.5735438592040842  0.33648901491714733  1.0000
  C   C29       1.0  0.006277859556891302  0.8311387383666679  0.5689949216216896  1.0000
  C   C30       1.0  0.009493460348055198  0.3042719744960818  0.578331307834973  1.0000
  O   O5        1.0  0.07830876201110576  0.5746600217757574  0.3850863701380043  1.0000
  O   O6        1.0  0.07839906961209214  0.5591758075200144  0.7626591577327078  1.0000
  O   O7        1.0  0.07707359145190312  0.7766148711359357  0.5673698482469243  1.0000
  O   O8        1.0  0.07963417674558015  0.3572209692235011  0.5803755820844572  1.0000
  O   O9        1.0  0.9361351159307268  0.7781896794039931  0.5669504444624165  1.0000
  O   O10       1.0  0.9374605835196096  0.5607523487245176  0.7622396880379747  1.0000
  O   O11       1.0  0.9373702763063206  0.5762365133166869  0.38466533901359967  1.0000
  O   O12       1.0  0.9386956910986994  0.3587974504107265  0.5799546483038327  1.0000
