data_image0
_chemical_formula_structural       NC5OC5NC4H8C6BrH5C6SCH8Zn2C4O8
_chemical_formula_sum              "N2 C31 O9 H21 Br1 S1 Zn2"
_cell_length_a       19.189071930511275
_cell_length_b       9.276564384272257
_cell_length_c       10.302812801239593
_cell_angle_alpha    85.51203806162957
_cell_angle_beta     89.97791177301549
_cell_angle_gamma    90.57707898574843

_space_group_name_H-M_alt    "P 1"
_space_group_IT_number       1

loop_
  _space_group_symop_operation_xyz
  'x, y, z'

loop_
  _atom_site_type_symbol
  _atom_site_label
  _atom_site_symmetry_multiplicity
  _atom_site_fract_x
  _atom_site_fract_y
  _atom_site_fract_z
  _atom_site_occupancy
  N   N1        1.0  0.6640187794502274  0.5780573361301364  0.5662804944773865  1.0000
  C   C1        1.0  0.6098150352850703  0.6292679152163386  0.5479555117767991  1.0000
  C   C2        1.0  0.5423925577175721  0.6929653419186155  0.5251619877075608  1.0000
  C   C3        1.0  0.5332289482711604  0.8005918571993613  0.42369379131037177  1.0000
  C   C4        1.0  0.46773568808683447  0.8625468690328069  0.401678307170247  1.0000
  C   C5        1.0  0.4107466953408401  0.8167603968841239  0.4797762434246762  1.0000
  O   O1        1.0  0.34610239283849986  0.8827480058019613  0.4554934729835333  1.0000
  C   C6        1.0  0.2808046186266748  0.81654991332703  0.47921236941099843  1.0000
  C   C7        1.0  0.22446799729981512  0.9027065747482625  0.5093969121357387  1.0000
  C   C8        1.0  0.15836372529837736  0.8410685570465761  0.5322625575910329  1.0000
  C   C9        1.0  0.1479332687048855  0.6924718331177155  0.5238386378972548  1.0000
  C   C10       1.0  0.0798819490074322  0.6289960051788819  0.5472262894616144  1.0000
  N   N2        1.0  0.025172689324559402  0.5779636473449721  0.566029359907769  1.0000
  C   C11       1.0  0.2037949604682379  0.6059728552673413  0.4917375537869575  1.0000
  C   C12       1.0  0.2698905889720308  0.6676546689096069  0.46891549693406365  1.0000
  C   C13       1.0  0.4203974247317849  0.7101361873835139  0.58286156098758  1.0000
  C   C14       1.0  0.48588174919081306  0.648176617799873  0.6049384079332476  1.0000
  H   H1        1.0  0.5766560036740757  0.8366942871104845  0.36179386742320707  1.0000
  H   H2        1.0  0.46111265341776303  0.9458710020143843  0.3231690797208253  1.0000
  H   H3        1.0  0.23207163005174525  0.01771865027788344  0.5158830357826323  1.0000
  H   H4        1.0  0.1154519783544155  0.9092126788602383  0.5563068931987063  1.0000
  H   H5        1.0  0.19618565083534945  0.4911308480949701  0.4836769277307844  1.0000
  H   H6        1.0  0.3120943796216316  0.599742297644376  0.44145829827192484  1.0000
  H   H7        1.0  0.3776912738322888  0.6764515324045486  0.6472121175658806  1.0000
  H   H8        1.0  0.4925170830113608  0.566016028468015  0.684537893715776  1.0000
  C   C15       1.0  0.8424994893418253  0.1545300903558231  0.5664883710873911  1.0000
  C   C16       1.0  0.8335689805173946  0.23803170027451848  0.44783500084937455  1.0000
  C   C17       1.0  0.8311239849910275  0.1730434708339903  0.3302854602076022  1.0000
  C   C18       1.0  0.837594015082577  0.023634632659999218  0.3291572449943416  1.0000
  C   C19       1.0  0.8452968484631233  0.9384400121027284  0.4460171357559095  1.0000
  C   C20       1.0  0.846698617515925  0.0014798040820136514  0.5658326557214759  1.0000
  Br  Br1       1.0  0.8347615588295222  0.9352776005534795  0.16785837354815736  1.0000
  H   H9        1.0  0.8220643078053351  0.4170877796300507  0.777572881515064  1.0000
  H   H10       1.0  0.8301299409186024  0.3546889847262469  0.44561476529556976  1.0000
  H   H11       1.0  0.8248617129512098  0.23926533176122436  0.2398566792874854  1.0000
  H   H12       1.0  0.8485212062051752  0.8221991937548553  0.44321581336310417  1.0000
  H   H13       1.0  0.8851415741095029  0.7035371644747431  0.7680100338595839  1.0000
  C   C21       1.0  0.8445990727926111  0.5780049695956466  0.1849120748488473  1.0000
  C   C22       1.0  0.821810348097466  0.7218221868532144  0.17361980563497026  1.0000
  C   C23       1.0  0.8102906837712198  0.7931684413742341  0.05102583335584553  1.0000
  C   C24       1.0  0.8218102845221067  0.721822035488779  0.9384686361066056  1.0000
  C   C25       1.0  0.8445990275427561  0.5780049598890268  0.9474089785173428  1.0000
  C   C26       1.0  0.8558604976271236  0.5067865617416756  0.0711701836909957  1.0000
  S   S1        1.0  0.7813183700985127  0.9770229402622126  0.038092962005934476  1.0000
  C   C27       1.0  0.6894029571060195  0.9266621592870208  0.04170784970655749  1.0000
  H   H14       1.0  0.8531610545727791  0.523788750987644  0.5164819815456401  1.0000
  H   H15       1.0  0.8127577171064388  0.7789467961323004  0.25970112736715123  1.0000
  H   H16       1.0  0.8127575765558649  0.7789465884342983  0.8443508146428992  1.0000
  H   H17       1.0  0.873425766796105  0.3958444106402108  0.07897400874240201  1.0000
  H   H18       1.0  0.8531597532977461  0.5237880026335517  0.6234663975135413  1.0000
  H   H19       1.0  0.6767276256625666  0.8625120074063696  0.9581197858639742  1.0000
  H   H20       1.0  0.6767279313549035  0.8625134647344244  0.13435447656164423  1.0000
  H   H21       1.0  0.6576436161491013  0.02620774691652938  0.034716716573244044  1.0000
  Zn  Zn1       1.0  0.7682399861917351  0.5780264524689049  0.566215517119669  1.0000
  Zn  Zn2       1.0  0.9209514416907811  0.577982778019501  0.566104961384118  1.0000
  C   C28       1.0  0.8445689999918838  0.572259989995215  0.8032851986726589  1.0000
  C   C29       1.0  0.8446241045162339  0.5837510595754148  0.32903540464142966  1.0000
  C   C30       1.0  0.8459013036944423  0.8413883032942902  0.5607831004450308  1.0000
  C   C31       1.0  0.8432917401138297  0.3146210136970107  0.5715375734648436  1.0000
  O   O2        1.0  0.9025856756986018  0.5856566342742453  0.37736256024772397  1.0000
  O   O3        1.0  0.9025118846369932  0.5703201794944833  0.7548737609354201  1.0000
  O   O4        1.0  0.9035869554891385  0.7876446962989452  0.5590516002787982  1.0000
  O   O5        1.0  0.9015105527875328  0.3683321278007552  0.573184623590173  1.0000
  O   O6        1.0  0.7876808229820661  0.7876771027041249  0.5591358549445113  1.0000
  O   O7        1.0  0.7866057607168495  0.5703543184954654  0.7549579450362449  1.0000
  O   O8        1.0  0.7866795515757398  0.5856907230220312  0.37744518347989797  1.0000
  O   O9        1.0  0.7856044286106773  0.3683662062340429  0.5732673441674179  1.0000
