data_image0
_chemical_formula_structural       NC9NC3OH6C7NH5C9H8Zn2C4O8
_chemical_formula_sum              "N3 C32 O9 H19 Zn2"
_cell_length_a       15.78231758774541
_cell_length_b       10.302819778424748
_cell_length_c       9.275155815604963
_cell_angle_alpha    86.0528115518669
_cell_angle_beta     90.4446892459172
_cell_angle_gamma    89.6314472413266

_space_group_name_H-M_alt    "P 1"
_space_group_IT_number       1

loop_
  _space_group_symop_operation_xyz
  'x, y, z'

loop_
  _atom_site_type_symbol
  _atom_site_label
  _atom_site_symmetry_multiplicity
  _atom_site_fract_x
  _atom_site_fract_y
  _atom_site_fract_z
  _atom_site_occupancy
  N   N1        1.0  0.7920365864111181  0.4005945563884438  0.41292110014002337  1.0000
  C   C1        1.0  0.7436035397390058  0.31876219781633197  0.4396441951441804  1.0000
  C   C2        1.0  0.6834720853675388  0.21718835267626987  0.4728144405070455  1.0000
  C   C3        1.0  0.7032886989715158  0.08959455474255718  0.5143934866551445  1.0000
  C   C4        1.0  0.6266330698281732  0.02775824395419969  0.5346270554560467  1.0000
  C   C5        1.0  0.5647385881575876  0.12219261093567302  0.5038996146423911  1.0000
  C   C6        1.0  0.47166902581009434  0.10473392567907246  0.5096824891844294  1.0000
  C   C7        1.0  0.4177942125149139  0.21178570384498882  0.47466593449001077  1.0000
  C   C8        1.0  0.3296053190602521  0.19747006182179702  0.4794156997765482  1.0000
  C   C9        1.0  0.27503020076326934  0.30763649638263013  0.4433711685328631  1.0000
  N   N2        1.0  0.23116471239972589  0.3961960853398736  0.4143945869017469  1.0000
  C   C10       1.0  0.2946101530102784  0.07594332748032138  0.5192363919396232  1.0000
  C   C11       1.0  0.34755378340228094  0.9691129131715324  0.5541853863110289  1.0000
  C   C12       1.0  0.43555749271572547  0.9830352706525739  0.5495646931717753  1.0000
  O   O1        1.0  0.6010617116894631  0.23410877638483799  0.4673754449676188  1.0000
  H   H1        1.0  0.7658008417436757  0.04656491323070555  0.5283590006605412  1.0000
  H   H2        1.0  0.6180237256338647  0.9260822091147994  0.5677772024876696  1.0000
  H   H3        1.0  0.4442848752838243  0.306355011185375  0.4436731352660512  1.0000
  H   H4        1.0  0.2265087532762189  0.06381870444176133  0.5232568407105653  1.0000
  H   H5        1.0  0.32033202178679704  0.8751901343230987  0.5849667727729262  1.0000
  H   H6        1.0  0.47474650175851335  0.898418129817599  0.5772559135173205  1.0000
  C   C13       1.0  0.011604708890656564  0.017142305296561796  0.41366405114441196  1.0000
  C   C14       1.0  0.9626092044144773  0.008712658830672066  0.5397073722834136  1.0000
  C   C15       1.0  0.9382334579760704  0.8874162502363487  0.6024151165547695  1.0000
  C   C16       1.0  0.9626092728184493  0.7734116483714727  0.5397073772361181  1.0000
  C   C17       1.0  0.011604723014508204  0.7796383326695208  0.41366409402860416  1.0000
  C   C18       1.0  0.0358465004712851  0.9020161683083985  0.35130100273612586  1.0000
  C   C19       1.0  0.8880059654080934  0.8799037350665714  0.7316280426752692  1.0000
  N   N3        1.0  0.8476394965926648  0.873866160585709  0.8354728507304028  1.0000
  H   H7        1.0  0.030163008274736378  0.3476576762206265  0.36592129157908887  1.0000
  H   H8        1.0  0.9432859227911776  0.09624677062000675  0.5894172208281454  1.0000
  H   H9        1.0  0.943286028418231  0.6800971651721782  0.5894171869435945  1.0000
  H   H10       1.0  0.073630102513208  0.9076673702888204  0.254100931848914  1.0000
  H   H11       1.0  0.030163086409418664  0.4546745957004222  0.3659214013807772  1.0000
  C   C20       1.0  0.01005220031859122  0.39512423814960157  0.9904276350513256  1.0000
  C   C21       1.0  0.9437659049156681  0.45904911961770734  0.05802009034104394  1.0000
  C   C22       1.0  0.883155087998778  0.5315456216434493  0.9765319496989932  1.0000
  C   C23       1.0  0.8877065387496732  0.5416338762878241  0.8259654250484254  1.0000
  C   C24       1.0  0.9522877029767526  0.4770285271311854  0.7566588834555641  1.0000
  C   C25       1.0  0.013157211299566374  0.40165640709442485  0.8369004797248176  1.0000
  C   C26       1.0  0.82538292920263  0.6171807052524356  0.7421589190483013  1.0000
  C   C27       1.0  0.7731981336614735  0.680440830382216  0.6719557745969554  1.0000
  C   C28       1.0  0.7098812680480378  0.7571962905479597  0.586764654109182  1.0000
  H   H12       1.0  0.20672684418739118  0.2884062478433278  0.10404540641185074  1.0000
  H   H13       1.0  0.939959091239246  0.45548836709298146  0.17479885465708686  1.0000
  H   H14       1.0  0.8331523868298528  0.5808440183472536  0.03117720200452112  1.0000
  H   H15       1.0  0.9538532899058108  0.48311780983371677  0.6395178412201807  1.0000
  H   H16       1.0  0.14438622342242224  0.3251570357944054  0.5637584186998195  1.0000
  H   H17       1.0  0.7270997914613053  0.7607540515943049  0.47082344222793354  1.0000
  H   H18       1.0  0.6467733871498269  0.7115964689540342  0.6015791770209855  1.0000
  H   H19       1.0  0.7077368455709729  0.8574668309184805  0.6232621925061603  1.0000
  Zn  Zn1       1.0  0.9187595047418076  0.39932184890860506  0.41335463270610917  1.0000
  Zn  Zn2       1.0  0.10444180879420445  0.3974582874900341  0.4139728361371737  1.0000
  C   C29       1.0  0.012568420193252763  0.3952496316944427  0.676899015491865  1.0000
  C   C30       1.0  0.010634921506673658  0.40153212356745677  0.15042860156230375  1.0000
  C   C31       1.0  0.011579288969259414  0.6354661132167705  0.4079207686659296  1.0000
  C   C32       1.0  0.01162398965211486  0.16131408344555775  0.41940692501697585  1.0000
  O   O2        1.0  0.08129595475695806  0.40296979258438065  0.20436099253014262  1.0000
  O   O3        1.0  0.08283595780077757  0.392396580054232  0.623435411736192  1.0000
  O   O4        1.0  0.0820362774171981  0.5863744479339845  0.4062335711959939  1.0000
  O   O5        1.0  0.08209557138334245  0.2089919337940025  0.4215627247947149  1.0000
  O   O6        1.0  0.9411056787883841  0.5877882032419335  0.40576474383002514  1.0000
  O   O7        1.0  0.9419053588862297  0.39381189459904875  0.622966507522944  1.0000
  O   O8        1.0  0.9403653495424613  0.40438504851433454  0.20389035550234547  1.0000
  O   O9        1.0  0.941164966561755  0.21040718127187885  0.4210921958240006  1.0000
