data_image0
_chemical_formula_structural       NC9NC3OH6C6ClH3C6NH7Zn2C4O8
_chemical_formula_sum              "N3 C28 O9 H16 Cl1 Zn2"
_cell_length_a       15.78231758774541
_cell_length_b       10.30297070629231
_cell_length_c       9.274774538082513
_cell_angle_alpha    85.06361778746081
_cell_angle_beta     90.43038941912484
_cell_angle_gamma    89.63144908567993

_space_group_name_H-M_alt    "P 1"
_space_group_IT_number       1

loop_
  _space_group_symop_operation_xyz
  'x, y, z'

loop_
  _atom_site_type_symbol
  _atom_site_label
  _atom_site_symmetry_multiplicity
  _atom_site_fract_x
  _atom_site_fract_y
  _atom_site_fract_z
  _atom_site_occupancy
  N   N1        1.0  0.7921560439934336  0.42533027805035173  0.4107274582052695  1.0000
  C   C1        1.0  0.743720984690376  0.3430822747212972  0.43748749154158895  1.0000
  C   C2        1.0  0.6835870321254324  0.24099250734106728  0.47070358689076164  1.0000
  C   C3        1.0  0.7034005142274307  0.1127520026085276  0.5123401062043758  1.0000
  C   C4        1.0  0.626743361209783  0.05060098182257235  0.5326016431045077  1.0000
  C   C5        1.0  0.5648511937616925  0.14551327124086244  0.5018317288900711  1.0000
  C   C6        1.0  0.4717811958863139  0.12796463684978998  0.5076225968742412  1.0000
  C   C7        1.0  0.4179090198344199  0.23556105689480855  0.4725576401153442  1.0000
  C   C8        1.0  0.3297197686593353  0.22117153477779342  0.47731397081653015  1.0000
  C   C9        1.0  0.27514736502627046  0.33189860061102894  0.4412196165760614  1.0000
  N   N2        1.0  0.231284059009802  0.42090888706885377  0.41220298170862296  1.0000
  C   C10       1.0  0.2947216035507998  0.09902543266596142  0.5171897056151153  1.0000
  C   C11       1.0  0.34766260178807495  0.9916514270834421  0.5521870086644053  1.0000
  C   C12       1.0  0.43566665910100644  0.00564565707160436  0.5475599285220261  1.0000
  O   O1        1.0  0.6011770680869721  0.25799752403100285  0.46525707322273563  1.0000
  H   H1        1.0  0.7659116051913044  0.06950514863108558  0.5263249242250863  1.0000
  H   H2        1.0  0.6181315203322743  0.9484093397458953  0.56579761234684  1.0000
  H   H3        1.0  0.44440201679697455  0.33061242391974854  0.4415220007186824  1.0000
  H   H4        1.0  0.2266199010233906  0.0868382737715605  0.5212157116952743  1.0000
  H   H5        1.0  0.3204385219013313  0.8972498768277055  0.5830109430711012  1.0000
  H   H6        1.0  0.47485358260292587  0.920597810850928  0.5752894253969708  1.0000
  C   C13       1.0  0.011724102569435454  0.0418720541975306  0.4114714491336044  1.0000
  C   C14       1.0  0.09931878128493847  0.03762928734643589  0.439564157744905  1.0000
  C   C15       1.0  0.14278092256273933  0.9185672965600988  0.45350290906666285  1.0000
  C   C16       1.0  0.09931878036493552  0.8025213192174816  0.4395640898662816  1.0000
  C   C17       1.0  0.011724111908651741  0.8043569952690187  0.41147153178230145  1.0000
  C   C18       1.0  0.9683537569439273  0.9246193669109243  0.39756208506054636  1.0000
  Cl  Cl1       1.0  0.2522075458802102  0.9147705876232333  0.48859729586011547  1.0000
  H   H7        1.0  0.13415731336644543  0.12646710134239192  0.4507371867860352  1.0000
  H   H8        1.0  0.1341572794855762  0.7112659096676578  0.4507370829810926  1.0000
  H   H9        1.0  0.9007980823725378  0.9269631905444508  0.3758960991717799  1.0000
  C   C19       1.0  0.010203450603346148  0.4264503535764177  0.9876500404528836  1.0000
  C   C20       1.0  0.07024392503298338  0.502459612546611  0.05458829118963316  1.0000
  C   C21       1.0  0.13408579650684282  0.5677361532449512  0.9740378881446499  1.0000
  C   C22       1.0  0.1384042557719274  0.5572971968857365  0.825074982806552  1.0000
  C   C23       1.0  0.07863563170287796  0.4841451745116716  0.756435083044932  1.0000
  C   C24       1.0  0.013244774070186193  0.41977862556305556  0.8352928855839941  1.0000
  N   N3        1.0  0.1950990165686508  0.6435549994968882  0.04398465249324923  1.0000
  H   H10       1.0  0.8835477025516237  0.1739352710463671  0.11314477618234607  1.0000
  H   H11       1.0  0.06871868235036471  0.508632341913289  0.1706032958766388  1.0000
  H   H12       1.0  0.18769497656405673  0.6069611286846162  0.7617098329660998  1.0000
  H   H13       1.0  0.08241405993614642  0.48049582170851957  0.6402747290751942  1.0000
  H   H14       1.0  0.9253353528591883  0.2536793699190196  0.5689157182656963  1.0000
  H   H15       1.0  0.19263844988159362  0.651721221807841  0.1553463080521613  1.0000
  H   H16       1.0  0.24316672631699376  0.6922103039920466  0.9849040778848437  1.0000
  Zn  Zn1       1.0  0.9188789296740698  0.42405082670291866  0.41116159002529806  1.0000
  Zn  Zn2       1.0  0.10456118716752888  0.4221776494606683  0.4117806479747794  1.0000
  C   C25       1.0  0.012668013211474698  0.41586774130744386  0.6750702330059347  1.0000
  C   C26       1.0  0.010774131782918863  0.43036235138380774  0.1478721534098244  1.0000
  C   C27       1.0  0.01169912772647729  0.6602763930783754  0.4057202074893522  1.0000
  C   C28       1.0  0.011742954183566065  0.18595213984083128  0.41722225566110893  1.0000
  O   O2        1.0  0.08143110662736869  0.4309587286464367  0.201879087430604  1.0000
  O   O3        1.0  0.08293957391887824  0.4138486897199176  0.6215327341836203  1.0000
  O   O4        1.0  0.08215624211304616  0.611211764765137  0.4040306797159112  1.0000
  O   O5        1.0  0.08221437468415409  0.23359566437940835  0.4193810334730321  1.0000
  O   O6        1.0  0.941225678793176  0.612632812424875  0.4035612043082  1.0000
  O   O7        1.0  0.9420090103190901  0.41527129779239735  0.6210631818223611  1.0000
  O   O8        1.0  0.9405005368580247  0.4323813051344217  0.20140779985977364  1.0000
  O   O9        1.0  0.9412838052995879  0.23501823072989914  0.41890985410863735  1.0000
