data_image0
_chemical_formula_structural       NC5NC3OH4C6NCH9C9H10Zn2C4O8
_chemical_formula_sum              "N3 C28 O9 H23 Zn2"
_cell_length_a       13.84702359539666
_cell_length_b       9.273386996610926
_cell_length_c       10.297187173949778
_cell_angle_alpha    85.47297527559209
_cell_angle_beta     89.95979786321969
_cell_angle_gamma    89.39943260271846

_space_group_name_H-M_alt    "P 1"
_space_group_IT_number       1

loop_
  _space_group_symop_operation_xyz
  'x, y, z'

loop_
  _atom_site_type_symbol
  _atom_site_label
  _atom_site_symmetry_multiplicity
  _atom_site_fract_x
  _atom_site_fract_y
  _atom_site_fract_z
  _atom_site_occupancy
  N   N1        1.0  0.8987623686845774  0.5787245486013013  0.564527423238739  1.0000
  C   C1        1.0  0.8266600048083391  0.5700595119279559  0.6213665715899972  1.0000
  C   C2        1.0  0.7368655249570021  0.5592697111130496  0.6921432874775812  1.0000
  C   C3        1.0  0.6492311906425617  0.5696933430607696  0.6237678995032103  1.0000
  C   C4        1.0  0.5614193969058794  0.5593908208426355  0.6913485017762684  1.0000
  C   C5        1.0  0.47151667423484467  0.570122759747515  0.6209514316944784  1.0000
  N   N2        1.0  0.3992465185253438  0.5787504147055964  0.5643577995557456  1.0000
  C   C6        1.0  0.5612367351319996  0.538633575105423  0.8275076349202095  1.0000
  C   C7        1.0  0.6484908884388915  0.5282002263962746  0.8959443432782617  1.0000
  C   C8        1.0  0.736618430600946  0.5384363535648327  0.8288006085020093  1.0000
  O   O1        1.0  0.8235930374523787  0.5279851938430791  0.897355756810957  1.0000
  H   H1        1.0  0.6493772806701228  0.5857743890362237  0.5182835190285284  1.0000
  H   H2        1.0  0.4937210573138729  0.5305249437049213  0.8806966789799384  1.0000
  H   H3        1.0  0.647566290819833  0.5121510767220192  0.0012201422133275553  1.0000
  H   H4        1.0  0.8251974455455389  0.5129646825441931  0.9958833531311662  1.0000
  C   C9        1.0  0.1519785443594639  0.1550837301453911  0.5650799022593477  1.0000
  C   C10       1.0  0.16897476904136233  0.23854415579450444  0.4476237900769362  1.0000
  C   C11       1.0  0.17687814753579617  0.17402562209042943  0.33016349997315064  1.0000
  C   C12       1.0  0.16790526925064309  0.023724082524867674  0.3271561631300104  1.0000
  C   C13       1.0  0.1526110452577616  0.9393007746649608  0.44420370215360033  1.0000
  C   C14       1.0  0.14603961954295852  0.002380106863546722  0.5638165580973087  1.0000
  N   N3        1.0  0.174993079083394  0.9541687506040584  0.20727112093280642  1.0000
  C   C15       1.0  0.19112344377797008  0.032048756743367365  0.08050527484254721  1.0000
  H   H5        1.0  0.17163695443557628  0.4172586117902684  0.7783349650695692  1.0000
  H   H6        1.0  0.17390097757410122  0.3551900858483661  0.44602846142236313  1.0000
  H   H7        1.0  0.18908649811713188  0.2426163123908338  0.24192483485861097  1.0000
  H   H8        1.0  0.1480534516847578  0.8228991895690082  0.44215604985563606  1.0000
  H   H9        1.0  0.18149078015055878  0.8710632271290794  0.8801864876734954  1.0000
  H   H10       1.0  0.16816463524312458  0.8418016433679535  0.20996706656445885  1.0000
  H   H11       1.0  0.1312630421939478  0.11061614128902741  0.05795619933305707  1.0000
  H   H12       1.0  0.26102266123012074  0.08960414500658784  0.0806911910272088  1.0000
  H   H13       1.0  0.19358375007652076  0.9546017799234185  0.003603787338363859  1.0000
  C   C16       1.0  0.14913712874485002  0.5786797850869969  0.18299509851287502  1.0000
  C   C17       1.0  0.05099149741079256  0.6183007231792812  0.17948728028273966  1.0000
  C   C18       1.0  0.0007085994147886215  0.6385994556183952  0.06107371820222741  1.0000
  C   C19       1.0  0.05061104059309396  0.6184537599912252  0.9442644555918328  1.0000
  C   C20       1.0  0.1488810643746703  0.5787840979521797  0.9459013392030481  1.0000
  C   C21       1.0  0.19750237883353416  0.559154746659819  0.0656554680840673  1.0000
  C   C22       1.0  0.8945570275491775  0.6814520367591876  0.06671193252909391  1.0000
  C   C23       1.0  0.8273538593329083  0.6234213524736281  0.9665495290016897  1.0000
  C   C24       1.0  0.8549552983803748  0.7825833890186276  0.9552029759534999  1.0000
  H   H14       1.0  0.18695829606933922  0.5634256594908107  0.5118841634021318  1.0000
  H   H15       1.0  0.013101970674906704  0.6335969405511066  0.26955542763456064  1.0000
  H   H16       1.0  0.013772926938594448  0.6333218247765307  0.8516476359039422  1.0000
  H   H17       1.0  0.2732236104487682  0.528585642960939  0.06763447742652763  1.0000
  H   H18       1.0  0.3344819348727137  0.5038408157139025  0.741777831619673  1.0000
  H   H19       1.0  0.8604383151490318  0.6952268008177551  0.1627802064468611  1.0000
  H   H20       1.0  0.8605153785709574  0.5583069930006188  0.8921105519930058  1.0000
  H   H21       1.0  0.7524334470207827  0.6038967884450761  0.0017226580877178798  1.0000
  H   H22       1.0  0.9048836574823705  0.8141510832786361  0.87387251690736  1.0000
  H   H23       1.0  0.7961658474589978  0.8560824620347803  0.9837421269229174  1.0000
  Zn  Zn1       1.0  0.043191306106239453  0.5787281518629647  0.5644859693098747  1.0000
  Zn  Zn2       1.0  0.2548176362257264  0.5787350083624567  0.5644098722072985  1.0000
  C   C25       1.0  0.1489675870046867  0.5730170397262611  0.8017042914108427  1.0000
  C   C26       1.0  0.14904365347848092  0.5844479408953485  0.32719167405576455  1.0000
  C   C27       1.0  0.14715898559799007  0.8422223621991256  0.5588790234500474  1.0000
  C   C28       1.0  0.15085219479779832  0.3152408851262367  0.5700170138809038  1.0000
  O   O2        1.0  0.22932341582137106  0.58638009474456  0.3755564929907407  1.0000
  O   O3        1.0  0.2293073202765541  0.5710890013997572  0.7532813442299968  1.0000
  O   O4        1.0  0.22784576868249867  0.7884757040121223  0.5571982204751913  1.0000
  O   O5        1.0  0.2307848951620502  0.3689934024368301  0.5716395193599573  1.0000
  O   O6        1.0  0.06722397495222698  0.7884697577878219  0.5572563221763494  1.0000
  O   O7        1.0  0.06868551441597258  0.5710847884709316  0.7533393740859443  1.0000
  O   O8        1.0  0.06870161090160815  0.5863758313284702  0.37561296117619225  1.0000
  O   O9        1.0  0.07016309027797506  0.36898912871533446  0.5716960849501314  1.0000
