data_image0
_chemical_formula_structural       NC5NC3F3CH3C6NCH9C6SCH8Zn2C4O8
_chemical_formula_sum              "N3 C27 F3 H20 S1 Zn2 O8"
_cell_length_a       13.85151926108384
_cell_length_b       9.273386996610926
_cell_length_c       10.302812801239593
_cell_angle_alpha    85.46621381537472
_cell_angle_beta     89.99987069690108
_cell_angle_gamma    89.3985898819531

_space_group_name_H-M_alt    "P 1"
_space_group_IT_number       1

loop_
  _space_group_symop_operation_xyz
  'x, y, z'

loop_
  _atom_site_type_symbol
  _atom_site_label
  _atom_site_symmetry_multiplicity
  _atom_site_fract_x
  _atom_site_fract_y
  _atom_site_fract_z
  _atom_site_occupancy
  N   N1        1.0  0.8979894036703353  0.5788743325095129  0.5656020217430024  1.0000
  C   C1        1.0  0.8257236251494662  0.5697910314335659  0.6218729630808744  1.0000
  C   C2        1.0  0.735819316455032  0.5584901592537457  0.6918820639856212  1.0000
  C   C3        1.0  0.6482285464612384  0.5677150144069114  0.6238507938097273  1.0000
  C   C4        1.0  0.5607673270435989  0.5584901461032281  0.6918820459404246  1.0000
  C   C5        1.0  0.47070437291651507  0.5697910475892414  0.6218730477741305  1.0000
  N   N2        1.0  0.3983112183232647  0.5788742946066379  0.5656021167701264  1.0000
  C   C6        1.0  0.5608946302645917  0.5390420802657198  0.8281045953216716  1.0000
  C   C7        1.0  0.6485168963240311  0.52662623491462  0.8972772516400722  1.0000
  C   C8        1.0  0.6486261920197715  0.5110432832943823  0.04411723138170587  1.0000
  F   F1        1.0  0.7300864555078082  0.4362007701639201  0.09070080024570204  1.0000
  F   F2        1.0  0.5682176410620494  0.43620073955306404  0.09070088971778578  1.0000
  F   F3        1.0  0.6476713555112348  0.6469079241239222  0.09049442753697656  1.0000
  C   C9        1.0  0.7359649577750974  0.5390419849769201  0.8281046131299084  1.0000
  H   H1        1.0  0.648121773282251  0.5829326565331872  0.5183822270501399  1.0000
  H   H2        1.0  0.4928076977220139  0.5338621369809873  0.8800337812317485  1.0000
  H   H3        1.0  0.8041244518099957  0.533862056051924  0.8800337443901947  1.0000
  C   C10       1.0  0.15112366441932415  0.15522033968436055  0.5662400212404968  1.0000
  C   C11       1.0  0.16807497530332374  0.23869594626899637  0.448852673792708  1.0000
  C   C12       1.0  0.17593638677130086  0.17419306444299498  0.331458069031898  1.0000
  C   C13       1.0  0.1669654088878434  0.023892400245521632  0.32844930437845643  1.0000
  C   C14       1.0  0.15171540978884823  0.9394538792714094  0.4454288746506001  1.0000
  C   C15       1.0  0.14518624136482225  0.002517196363082783  0.5649753420029411  1.0000
  N   N3        1.0  0.17401070269204433  0.954353093936058  0.2086309717823362  1.0000
  C   C16       1.0  0.19009331118122827  0.03224959875114664  0.08193859081118693  1.0000
  H   H4        1.0  0.17084724152761566  0.41736504536138846  0.7793873543637622  1.0000
  H   H5        1.0  0.17299905142533326  0.3553418396253323  0.4472598704162254  1.0000
  H   H6        1.0  0.18811117753146112  0.24279518836047773  0.24327087348639592  1.0000
  H   H7        1.0  0.14715860699630473  0.8230528099209496  0.44338077613090787  1.0000
  H   H8        1.0  0.18073204056374256  0.8711552244814988  0.8811875823654077  1.0000
  H   H9        1.0  0.1671853772491694  0.8419859713089135  0.21132315707276983  1.0000
  H   H10       1.0  0.13024475357221887  0.11082316307125882  0.05938132371056515  1.0000
  H   H11       1.0  0.25996992758346993  0.08980134571956322  0.08214809662962197  1.0000
  H   H12       1.0  0.19252702156014223  0.9548130096445545  0.005079187820704601  1.0000
  C   C17       1.0  0.14815499172666557  0.5788687852802619  0.18435920848186035  1.0000
  C   C18       1.0  0.11458888559041899  0.7227388516614119  0.17294717953741753  1.0000
  C   C19       1.0  0.09764005162578249  0.7941112684776677  0.050293646584817164  1.0000
  C   C20       1.0  0.11458879961776681  0.7227387002186414  0.9377960100742113  1.0000
  C   C21       1.0  0.14815492917500817  0.5788687755579388  0.9468561121259053  1.0000
  C   C22       1.0  0.16474430218694375  0.5076242003814446  0.07067660605374648  1.0000
  S   S1        1.0  0.05495191275323898  0.9780333708081062  0.03720778723827767  1.0000
  C   C23       1.0  0.9283168831153451  0.9276281716896542  0.04079514808023065  1.0000
  H   H13       1.0  0.1607686900401566  0.5246326361086073  0.515974242100762  1.0000
  H   H14       1.0  0.10125510709729892  0.7798844525338382  0.2589809317476805  1.0000
  H   H15       1.0  0.1012549152697464  0.7798842447145169  0.8436306190757649  1.0000
  H   H16       1.0  0.19061788825388518  0.39664127721359166  0.0785728051786172  1.0000
  H   H17       1.0  0.16076689771977604  0.5246318871112174  0.6229586577045203  1.0000
  H   H18       1.0  0.9116475811139358  0.8634485217327469  0.9572446211955237  1.0000
  H   H19       1.0  0.9116479843754393  0.8634499797355254  0.1334793110527861  1.0000
  H   H20       1.0  0.8829378708688617  0.027206193222661927  0.033710005311278886  1.0000
  Zn  Zn1       1.0  0.04237149899906113  0.578870470156458  0.5656095380839301  1.0000
  Zn  Zn2       1.0  0.25392918799693587  0.5788663896691151  0.5656052035267177  1.0000
  C   C24       1.0  0.14819306391445178  0.5731214506174724  0.8027364623575249  1.0000
  C   C25       1.0  0.14810992052919802  0.5846172294684575  0.32847840391492955  1.0000
  C   C26       1.0  0.1463035880884478  0.8423600689188481  0.5600408352581887  1.0000
  C   C27       1.0  0.1499993363114145  0.3153768778641177  0.5711741028196972  1.0000
  O   O1        1.0  0.22837987876070742  0.5865386173848066  0.37684448690006267  1.0000
  O   O2        1.0  0.22849050414723315  0.5711958773543937  0.7543667174403175  1.0000
  O   O3        1.0  0.2269636462412019  0.7886094666406567  0.5583882792288807  1.0000
  O   O4        1.0  0.22990666440411855  0.3691250384202327  0.572822827753662  1.0000
  O   O5        1.0  0.06639395039761099  0.7886118214083033  0.5583919138516339  1.0000
  O   O6        1.0  0.06792079615316293  0.5711999654279678  0.7543702802522874  1.0000
  O   O7        1.0  0.06781017118325595  0.5865426551845994  0.37684648887955086  1.0000
  O   O8        1.0  0.06933695689501951  0.3691290659012996  0.5728249270856359  1.0000
