data_image0
_chemical_formula_structural       NC9NC3SH6C6NO2H5C7OCH10Zn2C4O8
_chemical_formula_sum              "N3 C30 S1 H21 O11 Zn2"
_cell_length_a       16.77567553997237
_cell_length_b       9.273392599741053
_cell_length_c       10.300835455316063
_cell_angle_alpha    85.69422618191317
_cell_angle_beta     90.414716717709
_cell_angle_gamma    90.29770283283837

_space_group_name_H-M_alt    "P 1"
_space_group_IT_number       1

loop_
  _space_group_symop_operation_xyz
  'x, y, z'

loop_
  _atom_site_type_symbol
  _atom_site_label
  _atom_site_symmetry_multiplicity
  _atom_site_fract_x
  _atom_site_fract_y
  _atom_site_fract_z
  _atom_site_occupancy
  N   N1        1.0  0.7412577616253859  0.5984732015110241  0.5777584565051395  1.0000
  C   C1        1.0  0.6862040819630074  0.6532576538779467  0.6194634998257695  1.0000
  C   C2        1.0  0.6178816861999591  0.7212415370229115  0.6712162688633581  1.0000
  C   C3        1.0  0.6194766462080035  0.8190814345678539  0.7664562187634254  1.0000
  C   C4        1.0  0.5435698259680685  0.8673622708580147  0.7980615058239788  1.0000
  C   C5        1.0  0.48189487293507755  0.8073308757473701  0.7273345814668437  1.0000
  C   C6        1.0  0.3952408854604657  0.8362758755807194  0.7382426703922796  1.0000
  C   C7        1.0  0.3389175888730214  0.7478859419862092  0.6797848145845007  1.0000
  C   C8        1.0  0.25712585150260187  0.7745982579190336  0.6896319194247957  1.0000
  C   C9        1.0  0.2001517452881244  0.6832447640923236  0.6297729292037886  1.0000
  N   N2        1.0  0.15436151425133  0.6098096463802802  0.5816551444231877  1.0000
  C   C10       1.0  0.23082555891950987  0.8900486136621601  0.7577764793679258  1.0000
  C   C11       1.0  0.28605609985769376  0.9786147531672026  0.8157731423702981  1.0000
  C   C12       1.0  0.3676879360349486  0.9523058679327763  0.8062214109565883  1.0000
  S   S1        1.0  0.5231071036226147  0.693945686827345  0.6260079073038827  1.0000
  H   H1        1.0  0.6736867136396696  0.8544724674156148  0.8122907298709447  1.0000
  H   H2        1.0  0.5348887190951477  0.9427789772572902  0.8716885516852917  1.0000
  H   H3        1.0  0.35822031239005475  0.6575985524034496  0.6271604523865397  1.0000
  H   H4        1.0  0.16771946790755293  0.9116578496608377  0.765907072211715  1.0000
  H   H5        1.0  0.2655765436803315  0.06822301670004283  0.8680786963648146  1.0000
  H   H6        1.0  0.408727006638997  0.02409483361787901  0.8511197945943536  1.0000
  C   C13       1.0  0.9502432208150902  0.18067939466629343  0.5789132411126219  1.0000
  C   C14       1.0  0.9400699190614401  0.2637118076836802  0.4602029302981141  1.0000
  C   C15       1.0  0.9228629283738191  0.19811031078226352  0.3457302653524299  1.0000
  C   C16       1.0  0.9152597247557864  0.04748595046196645  0.3467739987702896  1.0000
  C   C17       1.0  0.9266762436008613  0.9633190199795378  0.4645905656085103  1.0000
  C   C18       1.0  0.9453837501084649  0.02759256130429355  0.5805116440030711  1.0000
  N   N3        1.0  0.8968116521152643  0.9804318532681809  0.22848216648396935  1.0000
  O   O1        1.0  0.886330740913485  0.06320852503093843  0.11310494660687966  1.0000
  O   O2        1.0  0.8897922748625403  0.8463060362715099  0.22862325150429055  1.0000
  H   H7        1.0  0.9340704482539298  0.25680958952593413  0.897452438739745  1.0000
  H   H8        1.0  0.9435538561729344  0.38064866187261837  0.4563994264347722  1.0000
  H   H9        1.0  0.9147012543013683  0.26577732704130463  0.2564094625889295  1.0000
  H   H10       1.0  0.9228262663834262  0.8466114910001752  0.4654785439782301  1.0000
  H   H11       1.0  0.9372105914030229  0.729346689685918  0.7958194088367414  1.0000
  C   C19       1.0  0.9477414773939195  0.6040604332061956  0.1983950947412403  1.0000
  C   C20       1.0  0.020481622809566783  0.6798439374719001  0.1932880954342997  1.0000
  C   C21       1.0  0.05664687094481824  0.7195275742522278  0.07349114531344658  1.0000
  C   C22       1.0  0.020670903408819715  0.6800407852616668  0.9579914679564476  1.0000
  C   C23       1.0  0.9478855069446668  0.604211538783246  0.9610298428560782  1.0000
  C   C24       1.0  0.9117575594589744  0.5669737011048521  0.08166778379592589  1.0000
  C   C25       1.0  0.13560859487515953  0.7968682435063799  0.06941663926809571  1.0000
  O   O3        1.0  0.19713071508131397  0.6932853669745496  0.07730068309933147  1.0000
  C   C26       1.0  0.2716081781498947  0.7645523599898945  0.07359769388587911  1.0000
  H   H12       1.0  0.9203352580210544  0.5735533167862253  0.5278552067973064  1.0000
  H   H13       1.0  0.04931525447596541  0.708289903889419  0.2823522651103132  1.0000
  H   H14       1.0  0.04963434931818678  0.7086231984514355  0.8658822903365322  1.0000
  H   H15       1.0  0.8556610992668904  0.5085153659456092  0.08484420278141735  1.0000
  H   H16       1.0  0.8110320771055287  0.45974073694152356  0.7596129956433777  1.0000
  H   H17       1.0  0.13942298674063514  0.8673708386510646  0.1522719085221902  1.0000
  H   H18       1.0  0.13960755487773846  0.8673979020756494  0.9771596443005565  1.0000
  H   H19       1.0  0.3193120097533251  0.6818799658026786  0.07986220133913946  1.0000
  H   H20       1.0  0.27928732966004444  0.8317313853333763  0.15794301269350286  1.0000
  H   H21       1.0  0.2794816169424339  0.8317968764760086  0.9804339460906157  1.0000
  Zn  Zn1       1.0  0.8604706074835263  0.6017408060547216  0.5788904557583565  1.0000
  Zn  Zn2       1.0  0.03514873294028953  0.60653028025658  0.5805337866407632  1.0000
  C   C27       1.0  0.9478894526107577  0.5984382234302987  0.8168646658753398  1.0000
  C   C28       1.0  0.9477317848768909  0.6098347346878128  0.342559725352138  1.0000
  C   C29       1.0  0.946297211695772  0.8675068341910809  0.5750350233735186  1.0000
  C   C30       1.0  0.9493239761404759  0.3407643897869583  0.5843894332525872  1.0000
  O   O4        1.0  0.014018006345206004  0.6135839324208076  0.39156631597734304  1.0000
  O   O5        1.0  0.014179892758828139  0.5983230378631226  0.7691049495171135  1.0000
  O   O6        1.0  0.012893244724974993  0.8155993196551722  0.5738257966349318  1.0000
  O   O7        1.0  0.01530459469567225  0.39630765929076317  0.5868453709567318  1.0000
  O   O8        1.0  0.880314686119062  0.8119634253876946  0.5725788708747723  1.0000
  O   O9        1.0  0.8816013241952341  0.594688876102873  0.767857957790711  1.0000
  O   O10       1.0  0.88143943782815  0.6099497201015991  0.39031776296698073  1.0000
  O   O11       1.0  0.8827260262529211  0.39267343667670507  0.5855969152815472  1.0000
