data_image0
_chemical_formula_structural       NC5NC3BrH3C6NH7C7F3H5Zn2C4O8
_chemical_formula_sum              "N3 C25 Br1 H15 F3 Zn2 O8"
_cell_length_a       13.839083392302014
_cell_length_b       9.274771166103582
_cell_length_c       10.299327507215196
_cell_angle_alpha    85.44807283694688
_cell_angle_beta     89.98220145889688
_cell_angle_gamma    90.6230172981901

_space_group_name_H-M_alt    "P 1"
_space_group_IT_number       1

loop_
  _space_group_symop_operation_xyz
  'x, y, z'

loop_
  _atom_site_type_symbol
  _atom_site_label
  _atom_site_symmetry_multiplicity
  _atom_site_fract_x
  _atom_site_fract_y
  _atom_site_fract_z
  _atom_site_occupancy
  N   N1        1.0  0.9212801682012184  0.5795057132137467  0.5648180873070163  1.0000
  C   C1        1.0  0.8488323165493814  0.5158407260715501  0.5671434002641573  1.0000
  C   C2        1.0  0.758568903137928  0.4366194699699623  0.5700367514649078  1.0000
  C   C3        1.0  0.6715455329460037  0.5128475190508672  0.5672528943721202  1.0000
  C   C4        1.0  0.5829760373061416  0.4380927348986696  0.5699828936145945  1.0000
  C   C5        1.0  0.4937666969658994  0.5166730455889572  0.5671129867343783  1.0000
  N   N2        1.0  0.4220539917951985  0.579845454999478  0.5648056290510379  1.0000
  C   C6        1.0  0.5813618995183106  0.2867982841246055  0.5755081735006451  1.0000
  C   C7        1.0  0.6679393754359505  0.21044892273260407  0.5782963786455555  1.0000
  C   C8        1.0  0.7566999026337388  0.2844893195712468  0.5755924870353186  1.0000
  Br  Br1       1.0  0.8733325547246961  0.17435841756165857  0.5796145523175575  1.0000
  H   H1        1.0  0.6727412627024142  0.6300879138299451  0.5629710904110412  1.0000
  H   H2        1.0  0.5132556451155164  0.22792400889179534  0.5776580233986519  1.0000
  H   H3        1.0  0.665982192309292  0.09345782619022568  0.5825687382282128  1.0000
  C   C9        1.0  0.1687049310204014  0.15607690070520763  0.5655198393920671  1.0000
  C   C10       1.0  0.14649786003977947  0.2393884276168048  0.4493799293630931  1.0000
  C   C11       1.0  0.13331280466442294  0.1743480509618145  0.33250293442400625  1.0000
  C   C12       1.0  0.14238568462376344  0.02461883893697503  0.3309192948860198  1.0000
  C   C13       1.0  0.1628063197959746  0.939986917123158  0.4454638189001552  1.0000
  C   C14       1.0  0.1746384069299034  0.0032631803983951204  0.564115178100806  1.0000
  N   N3        1.0  0.11169972455876676  0.26075967488175555  0.21508655867720705  1.0000
  H   H4        1.0  0.27738281366733974  0.23576728069781683  0.8497485807743377  1.0000
  H   H5        1.0  0.14162585367567693  0.3559779072423166  0.4488811702461981  1.0000
  H   H6        1.0  0.1326984530961859  0.9731388580525375  0.24099422767392342  1.0000
  H   H7        1.0  0.1670656486115192  0.8238263626098297  0.4417442029479346  1.0000
  H   H8        1.0  0.2439204233224832  0.7062141628617535  0.7574914740909193  1.0000
  H   H9        1.0  0.10504215091887616  0.372829066200713  0.2150445413863853  1.0000
  H   H10       1.0  0.10210293976984963  0.2132966349988883  0.12729732227330248  1.0000
  C   C15       1.0  0.17176460593903475  0.5797286752037176  0.18343581404260978  1.0000
  C   C16       1.0  0.266071044534119  0.6376310879678273  0.17806711019267407  1.0000
  C   C17       1.0  0.3129564841583927  0.6692884756798723  0.058058520464598695  1.0000
  C   C18       1.0  0.2658269953561292  0.637477958144008  0.9428299121939254  1.0000
  C   C19       1.0  0.17157874854202437  0.5796113922194039  0.9461991891885138  1.0000
  C   C20       1.0  0.12495436840618068  0.5516070066767471  0.06697428312275067  1.0000
  C   C21       1.0  0.4154867242500162  0.7265593103796806  0.05369880598171472  1.0000
  F   F1        1.0  0.432955365089132  0.8108070526770694  0.156449880743196  1.0000
  F   F2        1.0  0.47850785632522874  0.6115927661491709  0.061756872507376936  1.0000
  F   F3        1.0  0.4326897722241232  0.810787301360122  0.9388065161180741  1.0000
  H   H11       1.0  0.994435912236701  0.4680487812877681  0.4009772638581479  1.0000
  H   H12       1.0  0.30326952358090864  0.6579447109763064  0.26742908086645767  1.0000
  H   H13       1.0  0.30285805053164694  0.6576826647853666  0.8504155044982937  1.0000
  H   H14       1.0  0.05226714158200974  0.5069819569083143  0.07030725772611235  1.0000
  H   H15       1.0  0.13595893800999592  0.5549972492403448  0.6202093120517223  1.0000
  Zn  Zn1       1.0  0.06579265041628002  0.5795998866954426  0.5648220042403935  1.0000
  Zn  Zn2       1.0  0.2775414163167793  0.5797394566152252  0.5648123899824169  1.0000
  C   C22       1.0  0.17157144984927508  0.5738869696158115  0.8020300957326745  1.0000
  C   C23       1.0  0.1717649418899132  0.5854541952665908  0.32760442283807834  1.0000
  C   C24       1.0  0.1735131294505372  0.8431277018072101  0.5592053218262321  1.0000
  C   C25       1.0  0.16982317787871762  0.316211729938882  0.5704292688623036  1.0000
  O   O1        1.0  0.2521225636840694  0.587422405039737  0.37598508681994147  1.0000
  O   O2        1.0  0.2519262343102622  0.5720236020306944  0.7536417626972374  1.0000
  O   O3        1.0  0.25349308155681394  0.7894388973673465  0.5575590373045061  1.0000
  O   O4        1.0  0.2505556442780099  0.3700071199893824  0.5720677148209168  1.0000
  O   O5        1.0  0.09277835019560077  0.7893322232752285  0.5575666793983405  1.0000
  O   O6        1.0  0.09121151509953407  0.5719186610288294  0.7536493326697367  1.0000
  O   O7        1.0  0.09140784456608153  0.5873174140108037  0.37599109542283116  1.0000
  O   O8        1.0  0.08984092506008046  0.3699021186280944  0.5720738208120102  1.0000
