data_image0
_chemical_formula_structural       NC9NC3OH6C7F3H5C6NCOCH7Zn2C4O8
_chemical_formula_sum              "N3 C31 O10 H18 F3 Zn2"
_cell_length_a       15.78231758774541
_cell_length_b       9.272718291674593
_cell_length_c       10.300272075376753
_cell_angle_alpha    85.97182266394306
_cell_angle_beta     90.08212328067073
_cell_angle_gamma    89.20559360488726

_space_group_name_H-M_alt    "P 1"
_space_group_IT_number       1

loop_
  _space_group_symop_operation_xyz
  'x, y, z'

loop_
  _atom_site_type_symbol
  _atom_site_label
  _atom_site_symmetry_multiplicity
  _atom_site_fract_x
  _atom_site_fract_y
  _atom_site_fract_z
  _atom_site_occupancy
  N   N1        1.0  0.791043300476195  0.5695869295885856  0.5806141012776589  1.0000
  C   C1        1.0  0.7429089265750216  0.4784693684991837  0.6040752968684662  1.0000
  C   C2        1.0  0.6831481962791739  0.36537032692767646  0.6331966937035467  1.0000
  C   C3        1.0  0.703430823646169  0.22329973556889612  0.669698454979234  1.0000
  C   C4        1.0  0.6270007382912204  0.15444673690488453  0.6874631850382413  1.0000
  C   C5        1.0  0.5647611843704151  0.2595952185045107  0.6604889824282183  1.0000
  C   C6        1.0  0.4717550455185711  0.24015483609240482  0.6655678621671515  1.0000
  C   C7        1.0  0.41748972413455915  0.35935388278653435  0.6348241983885439  1.0000
  C   C8        1.0  0.3293528071568221  0.34341323253281675  0.6389959183753495  1.0000
  C   C9        1.0  0.2743758524424194  0.4660804404890997  0.6073495057069627  1.0000
  N   N2        1.0  0.2301873447059738  0.5646890499579493  0.581908585382904  1.0000
  C   C10       1.0  0.294800698583868  0.20809612374639389  0.6739590915674085  1.0000
  C   C11       1.0  0.34813401189081244  0.08914351605887116  0.7046435505774997  1.0000
  C   C12       1.0  0.4360871778033275  0.10464625156850403  0.7005851625949548  1.0000
  O   O1        1.0  0.6006757507894801  0.38420987452237476  0.6284235915453513  1.0000
  H   H1        1.0  0.766100330822549  0.17538845496309285  0.6819573110559349  1.0000
  H   H2        1.0  0.618762686081962  0.041234387289065706  0.7165657047679621  1.0000
  H   H3        1.0  0.4436356289250671  0.4646545889274845  0.6076119287920401  1.0000
  H   H4        1.0  0.22674332890066243  0.19459522217508907  0.677490199125391  1.0000
  H   H5        1.0  0.321254649577846  0.9845627000311366  0.7316702065522012  1.0000
  H   H6        1.0  0.4755848094365068  0.01042740607298498  0.7248976645484824  1.0000
  C   C13       1.0  0.012464764370632814  0.14373565085739637  0.5783981798559243  1.0000
  C   C14       1.0  0.9608145742768542  0.22565438983800348  0.488502441454681  1.0000
  C   C15       1.0  0.9031685506670006  0.1587922586065531  0.4088353580552588  1.0000
  C   C16       1.0  0.8994184580873753  0.007542869138975827  0.41641634931081506  1.0000
  C   C17       1.0  0.9511320374913509  0.9246652985939279  0.5035022517042562  1.0000
  C   C18       1.0  0.00877399902716114  0.990529152897282  0.5841357102572853  1.0000
  C   C19       1.0  0.8499772156960176  0.24832828105588955  0.31067359766462  1.0000
  F   F1        1.0  0.8282031413009177  0.3799745623878936  0.35780444804423084  1.0000
  F   F2        1.0  0.7760107368551291  0.17776189657689234  0.2833245580332884  1.0000
  F   F3        1.0  0.8956898992669224  0.2726386803292611  0.19705706181212634  1.0000
  H   H7        1.0  0.11307176742825281  0.22121288495113273  0.8589480492611188  1.0000
  H   H8        1.0  0.9641969642731333  0.34258751911285007  0.4824683841514998  1.0000
  H   H9        1.0  0.8570653536973027  0.952943543397488  0.35384499372740885  1.0000
  H   H10       1.0  0.947673596658168  0.807934196804895  0.5052392437772699  1.0000
  H   H11       1.0  0.19067621177197777  0.8725343013820515  0.7409689843326412  1.0000
  C   C20       1.0  0.010625702106673351  0.5672787493864393  0.19991520556256148  1.0000
  C   C21       1.0  0.9237549609052464  0.6023536246649724  0.19645160848037466  1.0000
  C   C22       1.0  0.8802278800198049  0.62197290381997  0.07730565834231462  1.0000
  C   C23       1.0  0.9237649584840669  0.6020248051809565  0.961315447509254  1.0000
  C   C24       1.0  0.010613102003204533  0.5669860115948375  0.9626186742219844  1.0000
  C   C25       1.0  0.0536546371865918  0.5503345318449766  0.08242600917717158  1.0000
  N   N3        1.0  0.7909992936582412  0.6556640980386359  0.07228294564974358  1.0000
  C   C26       1.0  0.7485439812073381  0.7458876996062733  0.16021902102551566  1.0000
  O   O2        1.0  0.7902677886305892  0.8225344405510302  0.23312828769640448  1.0000
  C   C27       1.0  0.6540400380132848  0.7575459322932816  0.1589000099452451  1.0000
  H   H12       1.0  0.8896050348412861  0.6115879445776706  0.28655418732213533  1.0000
  H   H13       1.0  0.8895356341320306  0.6152149710106658  0.8699322501781226  1.0000
  H   H14       1.0  0.12066038146655295  0.523321324392638  0.08428605677521084  1.0000
  H   H15       1.0  0.7557526010540054  0.6201022912596319  0.9949781738320088  1.0000
  H   H16       1.0  0.6263725597033074  0.6501093717613775  0.14571123243181905  1.0000
  H   H17       1.0  0.6306549369892751  0.7963175962447842  0.2521376071038952  1.0000
  H   H18       1.0  0.6333451757875146  0.8348306430808663  0.07749965179246421  1.0000
  Zn  Zn1       1.0  0.9177707986242699  0.5681696531343028  0.5809951284618908  1.0000
  Zn  Zn2       1.0  0.1034598691791197  0.5660945546249272  0.5815380943064081  1.0000
  C   C28       1.0  0.010638605790223684  0.5612974999669353  0.8184124378122619  1.0000
  C   C29       1.0  0.010594081800844528  0.5729685043068744  0.34412093067214444  1.0000
  C   C30       1.0  0.009467368252138442  0.8304691957705543  0.577876209871256  1.0000
  C   C31       1.0  0.011765263525204345  0.3037950769101454  0.5846572159262746  1.0000
  O   O3        1.0  0.08105153170205304  0.5740842587618007  0.3927236994432286  1.0000
  O   O4        1.0  0.08111486863447465  0.5586057061966732  0.77022138635482  1.0000
  O   O5        1.0  0.08016812954498495  0.7759652647963449  0.5759866878388267  1.0000
  O   O6        1.0  0.0819982073850991  0.35672471122174887  0.5869583004735515  1.0000
  O   O7        1.0  0.939232397051717  0.7775394972471825  0.5755749221026396  1.0000
  O   O8        1.0  0.9401791285883597  0.5601816709503218  0.7698095631134014  1.0000
  O   O9        1.0  0.9401157919571302  0.5756601738700344  0.3923103145312625  1.0000
  O   O10       1.0  0.9410624676800469  0.35830061598006435  0.5865450128551488  1.0000
