data_image0
_chemical_formula_structural       NC5NC3BrH3C6NH7C6H6Zn2C4O8
_chemical_formula_sum              "N3 C24 Br1 H16 Zn2 O8"
_cell_length_a       13.839083392302014
_cell_length_b       9.274771166103582
_cell_length_c       10.681121600428288
_cell_angle_alpha    85.45578074471726
_cell_angle_beta     90.00087308194136
_cell_angle_gamma    90.6230172981901

_space_group_name_H-M_alt    "P 1"
_space_group_IT_number       1

loop_
  _space_group_symop_operation_xyz
  'x, y, z'

loop_
  _atom_site_type_symbol
  _atom_site_label
  _atom_site_symmetry_multiplicity
  _atom_site_fract_x
  _atom_site_fract_y
  _atom_site_fract_z
  _atom_site_occupancy
  N   N1        1.0  0.9209304883390435  0.5792849208545837  0.6161335851995039  1.0000
  C   C1        1.0  0.8484832032461265  0.5156202914449703  0.6183757556705974  1.0000
  C   C2        1.0  0.7582204947952359  0.43639948046454236  0.6211656539528494  1.0000
  C   C3        1.0  0.6711964463208194  0.5126271012691646  0.6184813347733497  1.0000
  C   C4        1.0  0.5826276158410669  0.43787273710760904  0.6211137218113119  1.0000
  C   C5        1.0  0.49341757625243465  0.5164526062834758  0.618346429588625  1.0000
  N   N2        1.0  0.4217043088975884  0.5796246607237021  0.6161215723934038  1.0000
  C   C6        1.0  0.5810148242791691  0.2865791363579011  0.6264414431259783  1.0000
  C   C7        1.0  0.6675929795386973  0.21023020391109906  0.6291299548912745  1.0000
  C   C8        1.0  0.75635284793746  0.28427018477556976  0.6265227419968153  1.0000
  Br  Br1       1.0  0.8729864799984274  0.1741399015316407  0.6304009967413876  1.0000
  H   H1        1.0  0.6723911328222907  0.6298668373236654  0.6143526284093048  1.0000
  H   H2        1.0  0.5129090936839904  0.22770519186395163  0.6285144242891335  1.0000
  H   H3        1.0  0.6656368373658695  0.09323976464034801  0.6332495545643892  1.0000
  C   C9        1.0  0.16835542213904087  0.15585621630552815  0.6168102458607265  1.0000
  C   C10       1.0  0.14612005384825033  0.2391498759317996  0.5048229643282625  1.0000
  C   C11       1.0  0.13290652157312266  0.17409151859630034  0.3921249526486739  1.0000
  C   C12       1.0  0.14197901568112914  0.02436206293996967  0.39059793676978877  1.0000
  C   C13       1.0  0.16242755945016385  0.9397477629728763  0.5010468759464498  1.0000
  C   C14       1.0  0.17428855580498337  0.003042279901733327  0.6154558087904467  1.0000
  N   N3        1.0  0.1112648331483912  0.26048507885589545  0.2789068459358477  1.0000
  H   H4        1.0  0.2771025566809717  0.23559032283468073  0.8908762759864024  1.0000
  H   H5        1.0  0.14124792596225744  0.3557392788268279  0.5043420385411961  1.0000
  H   H6        1.0  0.13226987404945167  0.9728682477342088  0.30388817596323797  1.0000
  H   H7        1.0  0.166685981987011  0.8235866362235311  0.49746025633627383  1.0000
  H   H8        1.0  0.2436176880341907  0.7060230119098848  0.8019178587037559  1.0000
  H   H9        1.0  0.10460724927105303  0.3725544637107967  0.27886633098990665  1.0000
  H   H10       1.0  0.10164665864726154  0.21300853323383004  0.19425654846074747  1.0000
  C   C15       1.0  0.17132200287348653  0.5794492099396691  0.2483877862153563  1.0000
  C   C16       1.0  0.10159771458815747  0.4991763877784278  0.18709521339305127  1.0000
  C   C17       1.0  0.1015976549061699  0.4991764802311196  0.056213073293724276  1.0000
  C   C18       1.0  0.1713219274062436  0.579449280598754  0.9838782217804677  1.0000
  C   C19       1.0  0.24098866540864594  0.6596555807863735  0.04517032191139814  1.0000
  C   C20       1.0  0.2409886528891967  0.6596555584101915  0.17606262061050093  1.0000
  H   H11       1.0  0.24183174647773864  0.6606270891821546  0.5415141490662201  1.0000
  H   H12       1.0  0.04694452581349107  0.4362547559075529  0.24023388185159966  1.0000
  H   H13       1.0  0.04694450610830447  0.43625482379423985  0.011729852517992743  1.0000
  H   H14       1.0  0.29564899172177905  0.7225855040647251  0.9920759754030418  1.0000
  H   H15       1.0  0.2956489426826027  0.7225854534644007  0.22050034296945722  1.0000
  H   H16       1.0  0.2418320445379203  0.6606265868178278  0.6795851241490678  1.0000
  Zn  Zn1       1.0  0.0654429715084599  0.5793790949388714  0.6161373620813759  1.0000
  Zn  Zn2       1.0  0.2771917350664601  0.5795186633795695  0.6161280915850025  1.0000
  C   C21       1.0  0.17127956632753571  0.5737026706088144  0.8448639842829714  1.0000
  C   C22       1.0  0.17135746528381057  0.5851969093004912  0.38740158928524004  1.0000
  C   C23       1.0  0.17316208204669903  0.8429060459646649  0.6107215063722042  1.0000
  C   C24       1.0  0.16947486517228458  0.3159918008194256  0.6215441367351902  1.0000
  O   O1        1.0  0.2517268749522166  0.5871725620889408  0.43405238345851516  1.0000
  O   O2        1.0  0.251622561045719  0.5718318588285662  0.7982057952661707  1.0000
  O   O3        1.0  0.2531416330382885  0.7892169882558326  0.609134085405793  1.0000
  O   O4        1.0  0.25020773077641056  0.3697874429329886  0.6231239994094175  1.0000
  O   O5        1.0  0.09242690353905969  0.789110315339395  0.6091414542535353  1.0000
  O   O6        1.0  0.09090784367940309  0.5717269189912859  0.7982130945713044  1.0000
  O   O7        1.0  0.09101215729821588  0.5870675719843872  0.4340581772214283  1.0000
  O   O8        1.0  0.08949301304619683  0.3696824425110632  0.6231298870783799  1.0000
