data_image0
_chemical_formula_structural       NC5NC3BrH3C9H8C7OH5Zn2C4O8
_chemical_formula_sum              "N2 C28 Br1 H16 O9 Zn2"
_cell_length_a       13.839083392302014
_cell_length_b       9.275152443626249
_cell_length_c       9.274074313596557
_cell_angle_alpha    85.92156872667384
_cell_angle_beta     90.2343589418284
_cell_angle_gamma    90.59950914120974

_space_group_name_H-M_alt    "P 1"
_space_group_IT_number       1

loop_
  _space_group_symop_operation_xyz
  'x, y, z'

loop_
  _atom_site_type_symbol
  _atom_site_label
  _atom_site_symmetry_multiplicity
  _atom_site_fract_x
  _atom_site_fract_y
  _atom_site_fract_z
  _atom_site_occupancy
  N   N1        1.0  0.9160314949315714  0.5637549843805619  0.4047933260219193  1.0000
  C   C1        1.0  0.8436091731726625  0.5001113437515079  0.40747685026830416  1.0000
  C   C2        1.0  0.753377527298863  0.42091664852269806  0.4108159245737331  1.0000
  C   C3        1.0  0.6663235904245204  0.49711914221047  0.40760320427579244  1.0000
  C   C4        1.0  0.5777840705215487  0.42238941894329973  0.4107537721238179  1.0000
  C   C5        1.0  0.4885432197800304  0.5009433840452193  0.4074417521840421  1.0000
  N   N2        1.0  0.41680518212214296  0.5640946117062746  0.4047789507810245  1.0000
  C   C6        1.0  0.5762306002534164  0.27114568939475503  0.4171302417425713  1.0000
  C   C7        1.0  0.6628386912227898  0.19482192315647673  0.4203479835738538  1.0000
  C   C8        1.0  0.7515695292065584  0.26883749880815966  0.41722754452919764  1.0000
  Br  Br1       1.0  0.8682463429252186  0.15874351889316363  0.42186922024781515  1.0000
  H   H1        1.0  0.6674723073856718  0.6143202303471171  0.4026617805973771  1.0000
  H   H2        1.0  0.5081479530217848  0.21229114900466195  0.4196112946342644  1.0000
  H   H3        1.0  0.660928419786203  0.0778700459227708  0.42527852300599606  1.0000
  C   C9        1.0  0.16357658865531532  0.14030500851854666  0.4062576422169004  1.0000
  C   C10       1.0  0.12837585418399766  0.2218185407424129  0.28381707734683526  1.0000
  C   C11       1.0  0.10215074246364164  0.15513490962286555  0.15908384359314412  1.0000
  C   C12       1.0  0.11071315075924248  0.005752027939435852  0.15432149045612875  1.0000
  C   C13       1.0  0.14402143475481988  0.9225389070930524  0.2757273196253205  1.0000
  C   C14       1.0  0.1692693003129666  0.9875336207374524  0.4033271269243385  1.0000
  C   C15       1.0  0.08417208044107882  0.9373164726493022  0.02515236456529779  1.0000
  C   C16       1.0  0.06195010827300162  0.8799842575607255  0.9169934738568989  1.0000
  C   C17       1.0  0.03498813080047247  0.8104097543613265  0.7857616288991058  1.0000
  H   H4        1.0  0.3032291199775223  0.2248768099870941  0.6940888080398745  1.0000
  H   H5        1.0  0.12328450028570281  0.33832812352119457  0.28336387325149004  1.0000
  H   H6        1.0  0.07605441647203781  0.22044063930804605  0.06574169707732658  1.0000
  H   H7        1.0  0.14807855752000565  0.8061921590376724  0.2717066389143124  1.0000
  H   H8        1.0  0.2602041842810201  0.6942285372286637  0.6001941119667691  1.0000
  H   H9        1.0  0.05269052469379654  0.6938321088753786  0.7992255325375113  1.0000
  H   H10       1.0  0.9562859223188088  0.8227452537826734  0.7660332296611867  1.0000
  H   H11       1.0  0.0755338290051024  0.8618699630279409  0.6924702002117629  1.0000
  C   C18       1.0  0.16523804932944475  0.5597637301509168  0.9815656296167581  1.0000
  C   C19       1.0  0.08127285206682533  0.602295279278825  0.05130958579590317  1.0000
  C   C20       1.0  0.0021438435483280794  0.6564233693773138  0.9719422208883701  1.0000
  C   C21       1.0  0.005130225831597939  0.6694598168591901  0.8206170511870678  1.0000
  C   C22       1.0  0.08777904475266096  0.6251857761463822  0.7497392704934542  1.0000
  C   C23       1.0  0.16760779885046337  0.5680748206670502  0.8280192274764211  1.0000
  C   C24       1.0  0.9224023322267392  0.7275524807449412  0.7350275930644316  1.0000
  O   O1        1.0  0.8469516625100818  0.7676945108202713  0.7955970143236937  1.0000
  H   H12       1.0  0.40109014265908693  0.5231708105472537  0.08847456158841817  1.0000
  H   H13       1.0  0.938964879590273  0.6894038872251429  0.02923146481337713  1.0000
  H   H14       1.0  0.08894570524023049  0.6321773984915713  0.6325583947296699  1.0000
  H   H15       1.0  0.32610911327321684  0.5381998176013407  0.5506525635210591  1.0000
  H   H16       1.0  0.9258924063023035  0.7363110025364794  0.618127690599314  1.0000
  Zn  Zn1       1.0  0.060543964030823405  0.5638492075754149  0.4047975202440697  1.0000
  Zn  Zn2       1.0  0.2722926588304815  0.5639886807905063  0.40478662513887764  1.0000
  C   C25       1.0  0.16711912090438297  0.5607570232076777  0.6680412083075611  1.0000
  C   C26       1.0  0.16571982687213538  0.5670826882284106  0.141543072117436  1.0000
  C   C27       1.0  0.1681721977946451  0.8273329563362044  0.39813790383770886  1.0000
  C   C28       1.0  0.16466666629647242  0.30050502264210527  0.41144645942389496  1.0000
  O   O2        1.0  0.24623899966853613  0.569585633342091  0.1952288503653712  1.0000
  O   O3        1.0  0.24731229945585453  0.5583588426999329  0.6143467498128702  1.0000
  O   O4        1.0  0.24816159330038268  0.7736222940148678  0.3963979167103384  1.0000
  O   O5        1.0  0.2453896333353236  0.35432219123798747  0.41317757537372035  1.0000
  O   O6        1.0  0.08744691726653331  0.773515697081834  0.39640657000535856  1.0000
  O   O7        1.0  0.0865976348479578  0.5582539781785785  0.6143553202674159  1.0000
  O   O8        1.0  0.08552432993595072  0.5694807015372927  0.1952356882186539  1.0000
  O   O9        1.0  0.08467496383197481  0.35421725017625816  0.4131845213173181  1.0000
