data_image0
_chemical_formula_structural       NC5NC3F3CH3C6NH7C6H6Zn2C4O8
_chemical_formula_sum              "N3 C25 F3 H16 Zn2 O8"
_cell_length_a       13.85151926108384
_cell_length_b       9.274771166103582
_cell_length_c       10.681121600428288
_cell_angle_alpha    85.45578074471726
_cell_angle_beta     89.99987223705872
_cell_angle_gamma    90.59705350001695

_space_group_name_H-M_alt    "P 1"
_space_group_IT_number       1

loop_
  _space_group_symop_operation_xyz
  'x, y, z'

loop_
  _atom_site_type_symbol
  _atom_site_label
  _atom_site_symmetry_multiplicity
  _atom_site_fract_x
  _atom_site_fract_y
  _atom_site_fract_z
  _atom_site_occupancy
  N   N1        1.0  0.9200992248724964  0.5786601702489974  0.616155722931129  1.0000
  C   C1        1.0  0.8477062490159738  0.5695781047415474  0.6704350752372168  1.0000
  C   C2        1.0  0.7576436893927481  0.558278769778402  0.737966354469677  1.0000
  C   C3        1.0  0.6701820987535521  0.5675023693174346  0.6723431835786651  1.0000
  C   C4        1.0  0.5825916997971604  0.5582787566296653  0.7379663370656994  1.0000
  C   C5        1.0  0.4926869970092616  0.5695781208950386  0.6704351569282057  1.0000
  N   N2        1.0  0.4204210389946527  0.5786601323512675  0.6161558145985511  1.0000
  C   C6        1.0  0.58244666378751  0.5388333373854761  0.8693671789770605  1.0000
  C   C7        1.0  0.6698950653149611  0.5264191803543216  0.9360918160726936  1.0000
  C   C8        1.0  0.6697861473300387  0.5108383520804316  0.07773342219971113  1.0000
  F   F1        1.0  0.7501983506637094  0.4360059892108145  0.12267894545506852  1.0000
  F   F2        1.0  0.5883295357892924  0.4360059586041149  0.12267903176304507  1.0000
  F   F3        1.0  0.6707338994892827  0.6466845762423424  0.12244645687864575  1.0000
  C   C9        1.0  0.7575169899636339  0.5388332421095967  0.8693671961696723  1.0000
  H   H1        1.0  0.6702884244724685  0.5827179406298366  0.5706077367474046  1.0000
  H   H2        1.0  0.5142871946985025  0.5336541001507402  0.919457934931527  1.0000
  H   H3        1.0  0.82560394765319  0.533654019232646  0.9194578994076821  1.0000
  C   C10       1.0  0.16730082443523592  0.15506361494552956  0.6168383313015993  1.0000
  C   C11       1.0  0.14508552655101736  0.238372358837097  0.5048505152655848  1.0000
  C   C12       1.0  0.1318839212636298  0.17332296543795908  0.3921521859533026  1.0000
  C   C13       1.0  0.1409482262270725  0.023587355086719386  0.3906253881630166  1.0000
  C   C14       1.0  0.16137831243867498  0.9389591830193267  0.5010748188907552  1.0000
  C   C15       1.0  0.17322860265109696  0.002245653559504797  0.6154840368545927  1.0000
  N   N3        1.0  0.11026176736964777  0.2597312072159972  0.27893355900806416  1.0000
  H   H4        1.0  0.27594980008115755  0.234723948438583  0.8909069755386658  1.0000
  H   H5        1.0  0.14021779641487275  0.35496506693798596  0.5043694723601679  1.0000
  H   H6        1.0  0.1312478483998647  0.9721001264715764  0.3039153939638535  1.0000
  H   H7        1.0  0.16563289117718538  0.8227951673960734  0.49748830164641084  1.0000
  H   H8        1.0  0.24249515602607022  0.705179353334612  0.8019477533320376  1.0000
  H   H9        1.0  0.1036101928560156  0.37180510851335735  0.27889288402419665  1.0000
  H   H10       1.0  0.10065227456293302  0.2122611864733013  0.1942830303270597  1.0000
  C   C16       1.0  0.17026472743209298  0.5786545960791245  0.24841594296820022  1.0000
  C   C17       1.0  0.10060337468241669  0.49842907422109  0.1871216940828244  1.0000
  C   C18       1.0  0.10060331505429998  0.498429166714269  0.05623955398206325  1.0000
  C   C19       1.0  0.1702646520329696  0.5786546667894064  0.9839063785314974  1.0000
  C   C20       1.0  0.23986850644657978  0.6588137057153911  0.045200153342079136  1.0000
  C   C21       1.0  0.2398684939384308  0.6588136833477027  0.17609245204088037  1.0000
  H   H11       1.0  0.2407108265217633  0.6597846421728826  0.5415440007632544  1.0000
  H   H12       1.0  0.04599951775172118  0.43554451856087023  0.24025904876401324  1.0000
  H   H13       1.0  0.04599949806432125  0.4355445864609244  0.011755019429932286  1.0000
  H   H14       1.0  0.2944794944731548  0.7217065479410489  0.9921071207826575  1.0000
  H   H15       1.0  0.2944794454782432  0.7217064973739924  0.22053148834789416  1.0000
  H   H16       1.0  0.2407111243129055  0.6597841396063545  0.6796149758532664  1.0000
  Zn  Zn1       1.0  0.06448126611470983  0.5786563084201317  0.6161629736675532  1.0000
  Zn  Zn2       1.0  0.27603889797117476  0.5786522284856919  0.6161587932809751  1.0000
  C   C22       1.0  0.1702223291908252  0.5729080855368247  0.844892140015707  1.0000
  C   C23       1.0  0.17030015783282793  0.5844022713825803  0.38742974689054455  1.0000
  C   C24       1.0  0.17210314568668905  0.8421101838116675  0.6107497073576791  1.0000
  C   C25       1.0  0.16841925702077662  0.3151984400397731  0.621572249085726  1.0000
  O   O1        1.0  0.2505970233136645  0.5863234023173214  0.4340824730189942  1.0000
  O   O2        1.0  0.2504928035644791  0.5709827698225227  0.798235882319106  1.0000
  O   O3        1.0  0.2520105043905305  0.7883668687255971  0.6091642089748484  1.0000
  O   O4        1.0  0.24907925036953027  0.36893931373452954  0.6231540524520413  1.0000
  O   O5        1.0  0.0914408415221286  0.7883692231742567  0.609167714491324  1.0000
  O   O6        1.0  0.08992315281803731  0.5709868573421087  0.798239318293265  1.0000
  O   O7        1.0  0.09002737227979797  0.5863274395698294  0.43408440345092564  1.0000
  O   O8        1.0  0.08850959925952019  0.36894334066971735  0.6231560767900204  1.0000
