data_image0
_chemical_formula_structural       NC5OC5NC4H8C6NH7C6BrH4Zn2C4O8
_chemical_formula_sum              "N3 C30 O9 H19 Br1 Zn2"
_cell_length_a       19.189071930511275
_cell_length_b       9.274771166103582
_cell_length_c       9.27656775626242
_cell_angle_alpha    86.01325923358289
_cell_angle_beta     90.16432666077901
_cell_angle_gamma    90.58817672672019

_space_group_name_H-M_alt    "P 1"
_space_group_IT_number       1

loop_
  _space_group_symop_operation_xyz
  'x, y, z'

loop_
  _atom_site_type_symbol
  _atom_site_label
  _atom_site_symmetry_multiplicity
  _atom_site_fract_x
  _atom_site_fract_y
  _atom_site_fract_z
  _atom_site_occupancy
  N   N1        1.0  0.6615846698165269  0.5628846323856644  0.4072703471619732  1.0000
  C   C1        1.0  0.6073526890483434  0.6139094548935566  0.3868824263238657  1.0000
  C   C2        1.0  0.539895089313447  0.6773758281131369  0.36152291811312676  1.0000
  C   C3        1.0  0.5305588356429808  0.7839274621584654  0.24880513891970416  1.0000
  C   C4        1.0  0.4650316921553109  0.845659421042321  0.22431083341122404  1.0000
  C   C5        1.0  0.4081790114975521  0.800710017060945  0.31103085769828276  1.0000
  O   O1        1.0  0.3434971187391146  0.8664509835589345  0.2840162936720152  1.0000
  C   C6        1.0  0.278235900488008  0.8004933473486404  0.31040526415579395  1.0000
  C   C7        1.0  0.2219615814326686  0.8870008741457505  0.34381996060308606  1.0000
  C   C8        1.0  0.15589275212435752  0.8255952362592454  0.3692574832364448  1.0000
  C   C9        1.0  0.1454333729679337  0.6768678012161011  0.36005471894421914  1.0000
  C   C10       1.0  0.07741826520974243  0.6136295447735778  0.38607338578628747  1.0000
  N   N2        1.0  0.02273811904815321  0.5627881884650972  0.4069917242927079  1.0000
  C   C11       1.0  0.20122928156495434  0.5899970302023714  0.3245133363687909  1.0000
  C   C12       1.0  0.2672895498779468  0.6514469494784434  0.2991241462822578  1.0000
  C   C13       1.0  0.41800538826597367  0.6951785348847177  0.42554236955005886  1.0000
  C   C14       1.0  0.48352370604062556  0.6334426842200085  0.4501047814451966  1.0000
  H   H1        1.0  0.5738778335806366  0.8193663878040143  0.18007158803806167  1.0000
  H   H2        1.0  0.4582750816947219  0.928151896792465  0.13709739043054436  1.0000
  H   H3        1.0  0.22958753891062522  0.002113750047269655  0.3509051787993598  1.0000
  H   H4        1.0  0.1130305887412166  0.894018721584144  0.39587536632792775  1.0000
  H   H5        1.0  0.19359482933114194  0.47503714859945356  0.31568053055368783  1.0000
  H   H6        1.0  0.30943763631431986  0.5832181692413148  0.26871835852715265  1.0000
  H   H7        1.0  0.3754119291440479  0.6621846653010635  0.4969933103718198  1.0000
  H   H8        1.0  0.49029468554604416  0.5521259123235414  0.538527073448896  1.0000
  C   C15       1.0  0.8400265294636899  0.1392481427757224  0.4079180401440301  1.0000
  C   C16       1.0  0.8237816436201111  0.22129887510038151  0.2790799930290708  1.0000
  C   C17       1.0  0.8140418972645131  0.1549817247772256  0.1494194259233288  1.0000
  C   C18       1.0  0.8205820479087527  0.0052271584124410336  0.14765768089113074  1.0000
  C   C19       1.0  0.8355354220819383  0.9218400016693001  0.27472669419741824  1.0000
  C   C20       1.0  0.8443029240882337  0.9864137740963096  0.4063565203563011  1.0000
  N   N3        1.0  0.7982228714766004  0.24011796738960187  0.019164907702625463  1.0000
  H   H9        1.0  0.9189653097638328  0.2219767592539712  0.7231941481433106  1.0000
  H   H10       1.0  0.820267012297733  0.337887098903388  0.2785292284001011  1.0000
  H   H11       1.0  0.813418123935321  0.9527644307130059  0.04789670151845148  1.0000
  H   H12       1.0  0.8385998656467747  0.8056347402083789  0.27059776588771967  1.0000
  H   H13       1.0  0.8946503536651502  0.6914358892141407  0.6208584943504809  1.0000
  H   H14       1.0  0.7934214073410605  0.3521926917733864  0.019121813213333286  1.0000
  H   H15       1.0  0.7911283946365999  0.19169564370593983  0.9217734479842045  1.0000
  C   C21       1.0  0.8414786111278533  0.5586858103849133  0.9840186670232973  1.0000
  C   C22       1.0  0.7797269830409143  0.5934276965251444  0.05461327311001841  1.0000
  C   C23       1.0  0.7211320558917221  0.6400505254478095  0.9758717611722384  1.0000
  C   C24       1.0  0.7231885120711069  0.6528757568445003  0.8253507395480577  1.0000
  C   C25       1.0  0.7835660770586471  0.6165760323464979  0.753032997314949  1.0000
  C   C26       1.0  0.8428508552992864  0.5669761159166979  0.8302558815421155  1.0000
  Br  Br1       1.0  0.6429965536187485  0.7178464591255134  0.7180429151021093  1.0000
  H   H16       1.0  0.9366855623851879  0.42764315594132407  0.2750203923396666  1.0000
  H   H17       1.0  0.6742888686376812  0.6675650405988673  0.032174701749849266  1.0000
  H   H18       1.0  0.783493593298118  0.6239443027755738  0.6359690371482696  1.0000
  H   H19       1.0  0.9574386819852403  0.5520506475645035  0.5508001417294457  1.0000
  Zn  Zn1       1.0  0.7658057567583051  0.5628530341249205  0.4071982641535252  1.0000
  Zn  Zn2       1.0  0.9185170092458016  0.5628081461559822  0.4070756097718766  1.0000
  C   C27       1.0  0.8425608898398419  0.5596626020156419  0.6703095058560924  1.0000
  C   C28       1.0  0.8417635531829585  0.5660003991834066  0.14396450479575718  1.0000
  C   C29       1.0  0.8434816884372965  0.826225157302583  0.4009099444069062  1.0000
  C   C30       1.0  0.8408426938522486  0.29943611162854844  0.41336414629964624  1.0000
  O   O2        1.0  0.899812275031157  0.5684319142864747  0.19759725397645278  1.0000
  O   O3        1.0  0.9004164689662162  0.5571959257367947  0.6165832520713994  1.0000
  O   O4        1.0  0.9011592466723435  0.7724485751816522  0.39904119801745486  1.0000
  O   O5        1.0  0.8990694450919271  0.35317927411725725  0.41513920001864446  1.0000
  O   O6        1.0  0.7852532687993194  0.7724819061804602  0.3991346739410311  1.0000
  O   O7        1.0  0.7845104997135876  0.557230989020334  0.6166766479745469  1.0000
  O   O8        1.0  0.7839063027620672  0.5684669103329878  0.19768891763997054  1.0000
  O   O9        1.0  0.7831634729430798  0.35321426090494423  0.41523097172818924  1.0000
