data_image0
_chemical_formula_structural       NC9NC3OH6C7F3H5C8H6Zn2C4O8
_chemical_formula_sum              "N2 C31 O9 H17 F3 Zn2"
_cell_length_a       15.78231758774541
_cell_length_b       9.272718291674593
_cell_length_c       9.275144076552241
_cell_angle_alpha    86.39339924805473
_cell_angle_beta     90.54614249944106
_cell_angle_gamma    89.20559360488726

_space_group_name_H-M_alt    "P 1"
_space_group_IT_number       1

loop_
  _space_group_symop_operation_xyz
  'x, y, z'

loop_
  _atom_site_type_symbol
  _atom_site_label
  _atom_site_symmetry_multiplicity
  _atom_site_fract_x
  _atom_site_fract_y
  _atom_site_fract_z
  _atom_site_occupancy
  N   N1        1.0  0.7836382833299065  0.5581428393025649  0.4244302366553965  1.0000
  C   C1        1.0  0.7356263078235452  0.46721443892048065  0.450473013618352  1.0000
  C   C2        1.0  0.6760175055150633  0.35435019459117223  0.48279881899729293  1.0000
  C   C3        1.0  0.6964905646514304  0.21257390617848546  0.5233170962512548  1.0000
  C   C4        1.0  0.6201531589058847  0.1438641392986457  0.5430365901254339  1.0000
  C   C5        1.0  0.5577728790323878  0.248795135850449  0.5130942481161613  1.0000
  C   C6        1.0  0.4647932369856658  0.2293957029492102  0.5187319886034587  1.0000
  C   C7        1.0  0.41036752415516625  0.34834687254076835  0.48460540815228725  1.0000
  C   C8        1.0  0.32225237127841067  0.3324398576361272  0.4892361684538144  1.0000
  C   C9        1.0  0.26711031542510066  0.45485190989153157  0.45410750403385775  1.0000
  N   N2        1.0  0.22278908095705482  0.5532553967158553  0.4258671609035452  1.0000
  C   C10       1.0  0.287882667573089  0.19740464661341717  0.5280465572012126  1.0000
  C   C11       1.0  0.34137606345186866  0.07869943867786146  0.5621074182147004  1.0000
  C   C12       1.0  0.42930805652292897  0.09416945260097553  0.557602460543235  1.0000
  O   O1        1.0  0.5935201584793168  0.37315125806954114  0.4775005027010857  1.0000
  H   H1        1.0  0.7592240269787834  0.16476146511721446  0.5369248705605743  1.0000
  H   H2        1.0  0.6120669362010573  0.03088643472448682  0.5753414412336226  1.0000
  H   H3        1.0  0.4363714609839431  0.4534281741699296  0.45439880316429415  1.0000
  H   H4        1.0  0.2198437198793056  0.18393221532192827  0.5319662145012339  1.0000
  H   H5        1.0  0.31463770074378755  0.9743365306139737  0.5921079853588345  1.0000
  H   H6        1.0  0.4689325278647437  0.00014663164514372654  0.5845902184064884  1.0000
  C   C13       1.0  0.0050481866359675135  0.13227369424986324  0.42197048360784595  1.0000
  C   C14       1.0  0.9529290053504079  0.213467630379097  0.3221829576037978  1.0000
  C   C15       1.0  0.8948673540250057  0.14596316692772904  0.23374960917405024  1.0000
  C   C16       1.0  0.8911568119089179  0.9947749007589419  0.2421647840811609  1.0000
  C   C17       1.0  0.9433247234300466  0.9125994781854404  0.3388332903331921  1.0000
  C   C18       1.0  0.0013873543156695013  0.9791134563068383  0.42833935018936686  1.0000
  C   C19       1.0  0.8411639035543147  0.2347077400259363  0.12478649933381192  1.0000
  F   F1        1.0  0.8196357134923583  0.36673402351766793  0.1771034505207134  1.0000
  F   F2        1.0  0.7670547432146269  0.16392084829865783  0.09442807465280922  1.0000
  F   F3        1.0  0.8862838431809213  0.2581020826473066  0.998668028897912  1.0000
  H   H7        1.0  0.10711883435513098  0.2120129192779148  0.7333910012718519  1.0000
  H   H8        1.0  0.9562799153257617  0.3303521088278152  0.31548493541988076  1.0000
  H   H9        1.0  0.848477269189862  0.9396710806137403  0.1727083128019688  1.0000
  H   H10       1.0  0.9398753445835263  0.7958823812516957  0.34076141445494973  1.0000
  H   H11       1.0  0.18410777519168042  0.8623831052702912  0.6024299655335779  1.0000
  C   C20       1.0  0.001234557119548229  0.5527651960754068  0.0018406719941486149  1.0000
  C   C21       1.0  0.9455784770433135  0.647416050629511  0.06834083642941313  1.0000
  C   C22       1.0  0.896690962629852  0.749135394710811  0.9860080872662409  1.0000
  C   C23       1.0  0.9025742340395929  0.7582836528637946  0.8356662855491318  1.0000
  C   C24       1.0  0.9564715772303166  0.6635466365354155  0.7674037370472093  1.0000
  C   C25       1.0  0.005200998867751718  0.5586219994879604  0.8484691604762871  1.0000
  C   C26       1.0  0.8524388370019251  0.8639803855331442  0.7509894045976795  1.0000
  C   C27       1.0  0.8104655849373101  0.9524733710722844  0.680078857572463  1.0000
  H   H12       1.0  0.178212471056157  0.36152323040039813  0.11959757543642933  1.0000
  H   H13       1.0  0.9413503266726256  0.6450393371164278  0.1849788619098715  1.0000
  H   H14       1.0  0.8548628599074883  0.8216930140349588  0.03985284351613782  1.0000
  H   H15       1.0  0.9588750452450546  0.6695111534394702  0.6503721355945982  1.0000
  H   H16       1.0  0.12254310123641837  0.42530129394406546  0.5780441883151423  1.0000
  H   H17       1.0  0.7736217847587129  0.030151336527596495  0.6178326379123864  1.0000
  Zn  Zn1       1.0  0.9103677693185226  0.5567286349582006  0.4248531906322037  1.0000
  Zn  Zn2       1.0  0.09605967255713493  0.554657914222447  0.42545590238798514  1.0000
  C   C28       1.0  0.004474196121424522  0.551770707602232  0.6883950042036877  1.0000
  C   C29       1.0  0.001955266302120727  0.559617639267862  0.16191425056665862  1.0000
  C   C30       1.0  0.002048067370307828  0.8190030306728306  0.4213910780170498  1.0000
  C   C31       1.0  0.0043813395385168255  0.29238358506625217  0.4289182403729406  1.0000
  O   O2        1.0  0.0726662796186277  0.5611252635268118  0.21586508448679287  1.0000
  O   O3        1.0  0.07469904350307209  0.5486903635833351  0.6349011914157235  1.0000
  O   O4        1.0  0.0727389709189985  0.7644838650392125  0.41929364011510317  1.0000
  O   O5        1.0  0.07462628828766915  0.34533177234455614  0.4314725275747873  1.0000
  O   O6        1.0  0.931801090220412  0.7660547775442439  0.4188365652321545  1.0000
  O   O7        1.0  0.9337611549516308  0.5502630079275304  0.6344440526998844  1.0000
  O   O8        1.0  0.931728383221054  0.5626978456343026  0.21540621226007617  1.0000
  O   O9        1.0  0.9336883924375521  0.34690434488657784  0.4310137633474507  1.0000
