data_image0
_chemical_formula_structural       NC8F2C7NH8C12H9C12H9Zn2C4O8
_chemical_formula_sum              "N2 C43 F2 H26 Zn2 O8"
_cell_length_a       17.998342126830877
_cell_length_b       13.024581838241813
_cell_length_c       13.024585202197207
_cell_angle_alpha    84.12653577963174
_cell_angle_beta     93.99278699860983
_cell_angle_gamma    93.73318089156965

_space_group_name_H-M_alt    "P 1"
_space_group_IT_number       1

loop_
  _space_group_symop_operation_xyz
  'x, y, z'

loop_
  _atom_site_type_symbol
  _atom_site_label
  _atom_site_symmetry_multiplicity
  _atom_site_fract_x
  _atom_site_fract_y
  _atom_site_fract_z
  _atom_site_occupancy
  N   N1        1.0  0.693972859113182  0.1241047373319584  0.8366254674417991  1.0000
  C   C1        1.0  0.644582362553992  0.10529581769294906  0.8890945253871757  1.0000
  C   C2        1.0  0.5831461514128012  0.08190037839042684  0.9543583155057886  1.0000
  C   C3        1.0  0.5476921846535133  0.9827920989877076  0.9621858160087899  1.0000
  C   C4        1.0  0.4879238882898833  0.9600428838264984  0.025395482330401564  1.0000
  C   C5        1.0  0.46339008936020315  0.03594377513268232  0.0825582089373974  1.0000
  C   C6        1.0  0.49859625438746846  0.13581913131558254  0.07284183881781203  1.0000
  C   C7        1.0  0.5583546871603537  0.15840403961122052  0.009587874313749292  1.0000
  C   C8        1.0  0.3969199879972761  0.012560710164388094  0.14778759747609813  1.0000
  F   F1        1.0  0.39408768385720655  0.9096326403846976  0.18782805243015233  1.0000
  F   F2        1.0  0.40389516364820177  0.0711523594323671  0.23142715581176354  1.0000
  C   C9        1.0  0.32607999595019044  0.03594400319639979  0.08255795759721152  1.0000
  C   C10       1.0  0.2993061373628441  0.1358192955087849  0.07284201353593178  1.0000
  C   C11       1.0  0.23530139833528071  0.15840421624973455  0.009588142392140231  1.0000
  C   C12       1.0  0.1977349757473002  0.08190060423889879  0.9543578978548912  1.0000
  C   C13       1.0  0.22463899501145  0.9827927459896401  0.9621843032001663  1.0000
  C   C14       1.0  0.2886337145306688  0.960043665312643  0.02539395241074005  1.0000
  C   C15       1.0  0.1319261976850824  0.10529599781460355  0.889094320953176  1.0000
  N   N2        1.0  0.07902038404848717  0.12410480873437062  0.83662538026311  1.0000
  H   H1        1.0  0.5660271150326651  0.9232241096396901  0.9191047637342283  1.0000
  H   H2        1.0  0.4606940399955485  0.8832528081379688  0.029346043210705216  1.0000
  H   H3        1.0  0.479711723595281  0.19647708460031985  0.11389301240384606  1.0000
  H   H4        1.0  0.5849946432872397  0.23562343019696128  0.0034289519624935995  1.0000
  H   H5        1.0  0.3280435671385573  0.1964770467725363  0.11389374870031897  1.0000
  H   H6        1.0  0.21531712732069289  0.2356233785859676  0.0034296654224750204  1.0000
  H   H7        1.0  0.19634954459693132  0.9232250333925135  0.9191023788831053  1.0000
  H   H8        1.0  0.3090258954764977  0.8832540607011881  0.029343601713590843  1.0000
  C   C16       1.0  0.872605982132403  0.821229981010871  0.8442234266287473  1.0000
  C   C17       1.0  0.8359698529178109  0.7584331065705711  0.772447756552716  1.0000
  C   C18       1.0  0.8600718114034869  0.6601032466957416  0.7632679969214566  1.0000
  C   C19       1.0  0.9208244700837547  0.6225308466876143  0.8261533724355119  1.0000
  C   C20       1.0  0.9579675744186674  0.6853627436733238  0.8970716425574505  1.0000
  C   C21       1.0  0.9339229768477112  0.7837241988081671  0.9063182713579085  1.0000
  C   C22       1.0  0.9471499380766828  0.5190522967908859  0.8152987548427318  1.0000
  C   C23       1.0  0.020344417369345877  0.5132645490891057  0.7858857040694935  1.0000
  C   C24       1.0  0.046807669132097315  0.4187669483429222  0.7680893328390898  1.0000
  C   C25       1.0  0.0005890330275897218  0.3288116483770643  0.7791711880290375  1.0000
  C   C26       1.0  0.9280001525554411  0.3327263701224734  0.8093441946390817  1.0000
  C   C27       1.0  0.9003944704781194  0.4269716518393761  0.8290365539570347  1.0000
  H   H9        1.0  0.8671171028999881  0.05844117390723968  0.9329819165800584  1.0000
  H   H10       1.0  0.7887736376065971  0.78531630898587  0.7231972947455394  1.0000
  H   H11       1.0  0.831442250558723  0.6132217620310623  0.7070046540023669  1.0000
  H   H12       1.0  0.0053168980252216  0.6578861790286085  0.9456821473047307  1.0000
  H   H13       1.0  0.963420609613467  0.8303334208441718  0.9620727128518772  1.0000
  H   H14       1.0  0.056679682679389165  0.5826277111041961  0.7748880944022208  1.0000
  H   H15       1.0  0.10311953304586365  0.4154276326455785  0.744880989008742  1.0000
  H   H16       1.0  0.8938043645920567  0.2612824434495382  0.8191392246995969  1.0000
  H   H17       1.0  0.7203779219967278  0.3420903942921947  0.8717242083147992  1.0000
  C   C28       1.0  0.8712145199307233  0.12286295731356488  0.5344421332294667  1.0000
  C   C29       1.0  0.8585702642429924  0.20528059311062494  0.4579460060173353  1.0000
  C   C30       1.0  0.8838829044821428  0.2037015203552148  0.35910549180643847  1.0000
  C   C31       1.0  0.9217662995471194  0.11942838071840334  0.3347711024160931  1.0000
  C   C32       1.0  0.935143243494241  0.037597590785114036  0.4111793303804818  1.0000
  C   C33       1.0  0.9098640367313569  0.03909010835018556  0.5100652783464115  1.0000
  C   C34       1.0  0.9496636610331812  0.11847648821863  0.230594891391451  1.0000
  C   C35       1.0  0.026997618854529337  0.115113902405662  0.22299697024618487  1.0000
  C   C36       1.0  0.05711563506361328  0.12058316494042165  0.12663551302604503  1.0000
  C   C37       1.0  0.010540361527614063  0.12969834937857905  0.036558403245559035  1.0000
  C   C38       1.0  0.9335439147326687  0.13209660285189906  0.04243787665303421  1.0000
  C   C39       1.0  0.9017858882707531  0.12533867762352702  0.13881779199500374  1.0000
  H   H18       1.0  0.8393349272452372  0.042329231146221565  0.7864036681025964  1.0000
  H   H19       1.0  0.8292599134883684  0.2711198251323931  0.47447810472696217  1.0000
  H   H20       1.0  0.8740543160986914  0.2682695284044203  0.3014892624372471  1.0000
  H   H21       1.0  0.9647895425323275  0.9722912832160301  0.3939525090153647  1.0000
  H   H22       1.0  0.9206580532475459  0.9746316197034893  0.5673606152665797  1.0000
  H   H23       1.0  0.06430196797145094  0.11008115006954822  0.2920699918268254  1.0000
  H   H24       1.0  0.11678676321866878  0.11853719609385127  0.12180560026400775  1.0000
  H   H25       1.0  0.8986033382228165  0.13735098976905413  0.9711733188891252  1.0000
  H   H26       1.0  0.7205233758584872  0.16128448628510794  0.053382081462687074  1.0000
  Zn  Zn1       1.0  0.8050894336178064  0.12410201784935927  0.8366314563948447  1.0000
  Zn  Zn2       1.0  0.9679038430537273  0.12409911202220036  0.8366280401354147  1.0000
  C   C40       1.0  0.8958171172713582  0.12076188603236097  0.024680891581325238  1.0000
  C   C41       1.0  0.877178002137311  0.12744054557680265  0.6485786732860438  1.0000
  C   C42       1.0  0.8949305911503511  0.31245678020856515  0.8278064916861214  1.0000
  C   C43       1.0  0.87806441862978  0.935744412468365  0.8454531591131302  1.0000
  O   O1        1.0  0.9409664146894041  0.12897122366135566  0.6868827551387767  1.0000
  O   O2        1.0  0.9556010235337217  0.11922822320474792  0.986373940147381  1.0000
  O   O3        1.0  0.9548843636828689  0.274024278962816  0.827396442443114  1.0000
  O   O4        1.0  0.9416830154183113  0.9741751749663077  0.8458601755018107  1.0000
  O   O5        1.0  0.8313102056924326  0.27402595490734427  0.8273993210241735  1.0000
  O   O6        1.0  0.8320269196110339  0.11923113808360175  0.9863767327922831  1.0000
  O   O7        1.0  0.8173922465846091  0.1289740975308842  0.6868843114672468  1.0000
  O   O8        1.0  0.8181088508746722  0.9741780417749082  0.8458618091672387  1.0000
