data_image0
_chemical_formula_structural       NC5NC3OH4C6NCH9C6SCH8Zn2C4O8
_chemical_formula_sum              "N3 C26 O9 H21 S1 Zn2"
_cell_length_a       13.84702359539666
_cell_length_b       9.273386996610926
_cell_length_c       10.302812801239593
_cell_angle_alpha    85.46621381537472
_cell_angle_beta     89.9855797555544
_cell_angle_gamma    89.39943260271846

_space_group_name_H-M_alt    "P 1"
_space_group_IT_number       1

loop_
  _space_group_symop_operation_xyz
  'x, y, z'

loop_
  _atom_site_type_symbol
  _atom_site_label
  _atom_site_symmetry_multiplicity
  _atom_site_fract_x
  _atom_site_fract_y
  _atom_site_fract_z
  _atom_site_occupancy
  N   N1        1.0  0.8982806531565506  0.5789208004054534  0.5652975877958111  1.0000
  C   C1        1.0  0.8261973633474895  0.5702479929215809  0.6221062406167313  1.0000
  C   C2        1.0  0.7364266347287555  0.5594485158102345  0.6928449831435388  1.0000
  C   C3        1.0  0.6487693550187325  0.5698814957548906  0.6245062801614458  1.0000
  C   C4        1.0  0.5609802399636461  0.5595697341995955  0.6920506238633137  1.0000
  C   C5        1.0  0.4710538934614531  0.5703112974973299  0.6216913234534605  1.0000
  N   N2        1.0  0.3987647460750436  0.5789466896999884  0.5651280551198852  1.0000
  C   C6        1.0  0.5608432704375877  0.5387938733554392  0.8281367044528782  1.0000
  C   C7        1.0  0.6481203897179415  0.5283511682658882  0.8965366949188349  1.0000
  C   C8        1.0  0.7362253998022854  0.5385964750449108  0.8294289843241596  1.0000
  O   O1        1.0  0.8232230123732288  0.5281359427501406  0.8979473511952121  1.0000
  H   H1        1.0  0.6488800466242951  0.5859769631134577  0.5190784945200484  1.0000
  H   H2        1.0  0.49334544178555395  0.5306779701713966  0.8812972113484552  1.0000
  H   H3        1.0  0.6472311205251402  0.5122876257249147  0.001756010929482628  1.0000
  H   H4        1.0  0.8248604843325017  0.5131019611705612  0.9964220851592829  1.0000
  C   C9        1.0  0.15149701423220852  0.1552799064169232  0.5658497703985246  1.0000
  C   C10       1.0  0.16845382302137857  0.2387563901742149  0.44845667616301005  1.0000
  C   C11       1.0  0.17631778422105793  0.17425391514950583  0.33105940624767394  1.0000
  C   C12       1.0  0.16734389673456  0.023952786734453557  0.32805368291097414  1.0000
  C   C13       1.0  0.1520889515255284  0.9395134766247809  0.445038423196707  1.0000
  C   C14       1.0  0.14555766546298535  0.0025764558542062973  0.5645871040501289  1.0000
  N   N3        1.0  0.17439147557485657  0.9544138449949706  0.20823296183833784  1.0000
  C   C15       1.0  0.19047930021852966  0.032311182030322114  0.08153512858460843  1.0000
  H   H5        1.0  0.1712269883889235  0.41742563272195027  0.7789904168878418  1.0000
  H   H6        1.0  0.1733794961941273  0.3554025383347345  0.44686220343951316  1.0000
  H   H7        1.0  0.18849652369323944  0.2428566690709817  0.24286808323742418  1.0000
  H   H8        1.0  0.1475306708018791  0.8231121714752828  0.4429918695120161  1.0000
  H   H9        1.0  0.18111499341236886  0.8712163233467747  0.8807872937715612  1.0000
  H   H10       1.0  0.16756393643934708  0.8420463691804596  0.21092746103220605  1.0000
  H   H11       1.0  0.13061133162139194  0.11088164939123213  0.0589981511806712  1.0000
  H   H12       1.0  0.26037858006038705  0.08986654487585996  0.081720945020896  1.0000
  H   H13       1.0  0.19291379993515134  0.9548747188599609  0.0046749005241937215  1.0000
  C   C16       1.0  0.14852737869478472  0.578928198394114  0.18396996407130284  1.0000
  C   C17       1.0  0.1149503858920289  0.7227965278434911  0.1725693146176881  1.0000
  C   C18       1.0  0.09799605482557339  0.7941680676152638  0.04992152761309376  1.0000
  C   C19       1.0  0.11495029989149286  0.7227963763962724  0.9374181451836283  1.0000
  C   C20       1.0  0.1485273161228391  0.5789281886685543  0.946466867736553  1.0000
  C   C21       1.0  0.16512206965078827  0.5076844719356628  0.07028173757987122  1.0000
  S   S1        1.0  0.05529407069108938  0.978087960979775  0.036850140284333976  1.0000
  C   C22       1.0  0.9286179688677458  0.9276762089294567  0.040480432592702176  1.0000
  H   H14       1.0  0.16114516807342416  0.524692701938425  0.5155807214282009  1.0000
  H   H15       1.0  0.10161228278648049  0.7799414387382534  0.2586075872095952  1.0000
  H   H16       1.0  0.10161209089671175  0.7799412309090059  0.8432572746027129  1.0000
  H   H17       1.0  0.19100404742994548  0.3967028876378458  0.07816916511133298  1.0000
  H   H18       1.0  0.16114337517173127  0.5246919528482887  0.6225651376395871  1.0000
  H   H19       1.0  0.9119432604265462  0.8634956963928938  0.95693555688983  1.0000
  H   H20       1.0  0.9119436638188417  0.8634971544165388  0.13317024661037924  1.0000
  H   H21       1.0  0.8832242386146274  0.027251882252997458  0.03341067409416776  1.0000
  Zn  Zn1       1.0  0.0427095766671135  0.5789244093345245  0.5652561561079481  1.0000
  Zn  Zn2       1.0  0.2543358812499539  0.5789312762376935  0.5651800998332444  1.0000
  C   C23       1.0  0.14856546323071762  0.5731808657014317  0.8023472050398367  1.0000
  C   C24       1.0  0.1484822928791456  0.584676640250029  0.32808917478428734  1.0000
  C   C25       1.0  0.14667537458137583  0.842419386228862  0.559652218505502  1.0000
  C   C26       1.0  0.15037232146522528  0.3154363864165264  0.5707842331444097  1.0000
  O   O2        1.0  0.22877828547586887  0.5866021818635716  0.37642804486454096  1.0000
  O   O3        1.0  0.22888894674209076  0.5712594475576463  0.7539502379008751  1.0000
  O   O4        1.0  0.22736159362244268  0.7886729578342084  0.5579723173206905  1.0000
  O   O5        1.0  0.2303055663094591  0.36918868190496  0.5724058681113866  1.0000
  O   O6        1.0  0.06673981938992557  0.7886670036664858  0.5580303878489288  1.0000
  O   O7        1.0  0.06826716035515347  0.571255226695222  0.7540082366224499  1.0000
  O   O8        1.0  0.06815649950568536  0.5865979107273882  0.37648448275349256  1.0000
  O   O9        1.0  0.06968378040765111  0.3691844004500535  0.5724624033528005  1.0000
