data_image0
_chemical_formula_structural       NC5NC3F3CH3C6BrH5C7ONH5Zn2C4O8
_chemical_formula_sum              "N3 C26 F3 H13 Br1 O9 Zn2"
_cell_length_a       13.85151926108384
_cell_length_b       9.276564384272257
_cell_length_c       9.273042158839658
_cell_angle_alpha    86.1127255114725
_cell_angle_beta     90.09323963097282
_cell_angle_gamma    90.58593481197379

_space_group_name_H-M_alt    "P 1"
_space_group_IT_number       1

loop_
  _space_group_symop_operation_xyz
  'x, y, z'

loop_
  _atom_site_type_symbol
  _atom_site_label
  _atom_site_symmetry_multiplicity
  _atom_site_fract_x
  _atom_site_fract_y
  _atom_site_fract_z
  _atom_site_occupancy
  N   N1        1.0  0.9180426057033236  0.5614745232658038  0.4088009262735517  1.0000
  C   C1        1.0  0.8457234640924005  0.553052670373938  0.4712655020111267  1.0000
  C   C2        1.0  0.7557527648261475  0.5425747343375575  0.5489803701870979  1.0000
  C   C3        1.0  0.6682021365295661  0.551000604801622  0.47345962014718346  1.0000
  C   C4        1.0  0.580700775208963  0.5425747209813481  0.548980350142821  1.0000
  C   C5        1.0  0.49070421219295285  0.553052687513228  0.47126559605032314  1.0000
  N   N2        1.0  0.4183644199530892  0.5614744864889689  0.4088010317420365  1.0000
  C   C6        1.0  0.5807341504339993  0.5247268943584245  0.7001986913357381  1.0000
  C   C7        1.0  0.6682734767107366  0.5131246529481904  0.7769840467929454  1.0000
  C   C8        1.0  0.6683561786750136  0.4992645138727214  0.9399929319168064  1.0000
  F   F1        1.0  0.7488382254203715  0.42499650364944985  0.9916498830215699  1.0000
  F   F2        1.0  0.5869694106654467  0.4249964740967785  0.9916499823287103  1.0000
  F   F3        1.0  0.6693462154347231  0.6356169693457703  0.9915897202393297  1.0000
  C   C9        1.0  0.7558044766454597  0.5247267993159181  0.7001987110299928  1.0000
  H   H1        1.0  0.6681703088780281  0.5649792180959325  0.35638088182712613  1.0000
  H   H2        1.0  0.5126424038726634  0.5201560823187095  0.7578461908400611  1.0000
  H   H3        1.0  0.823959156790263  0.5201560009913321  0.7578461498737679  1.0000
  C   C10       1.0  0.1652999038397188  0.1379974360179408  0.4091695325065865  1.0000
  C   C11       1.0  0.15277487549325058  0.22010958329912  0.277433960087178  1.0000
  C   C12       1.0  0.14923593390043188  0.15374652946693468  0.14692886462728505  1.0000
  C   C13       1.0  0.15819768901132125  0.004326232482504417  0.14568131903870207  1.0000
  C   C14       1.0  0.16901964978641054  0.9204997802381136  0.27542482700087456  1.0000
  C   C15       1.0  0.17111629063107237  0.984940607249716  0.4084448014905042  1.0000
  Br  Br1       1.0  0.154065490799131  0.9140828365783897  0.9666055262146998  1.0000
  H   H4        1.0  0.13726272414150253  0.403017268053876  0.6434992506299286  1.0000
  H   H5        1.0  0.1480077586857318  0.33673999323605286  0.27496640448789655  1.0000
  H   H6        1.0  0.14044377362352867  0.21890959067804114  0.04653022142100016  1.0000
  H   H7        1.0  0.17348287455485223  0.804227076281492  0.27231729568979657  1.0000
  H   H8        1.0  0.22463403538319376  0.6893717296800645  0.6329313089940412  1.0000
  C   C16       1.0  0.1677158437203865  0.557012196471657  0.9855460994441758  1.0000
  C   C17       1.0  0.07910808255516023  0.5661951783183097  0.058219040827907305  1.0000
  C   C18       1.0  0.992339477359889  0.589326907155594  0.9819430781103455  1.0000
  C   C19       1.0  0.9947018984474347  0.6015338300927113  0.8304339331222672  1.0000
  C   C20       1.0  0.08171467089952533  0.5902335861084846  0.7567533725635647  1.0000
  C   C21       1.0  0.16870037549609126  0.5659258376707719  0.8320683112965841  1.0000
  C   C22       1.0  0.9001546509423946  0.5992821837590914  0.061794571289576446  1.0000
  O   O1        1.0  0.8933217465094236  0.5434767323987786  0.18921294229154872  1.0000
  N   N3        1.0  0.8185382421839866  0.6724424579463366  0.9981955016298296  1.0000
  H   H9        1.0  0.4023222155974522  0.6120952166779461  0.08545904660165804  1.0000
  H   H10       1.0  0.9291491188963337  0.6157920839462714  0.7677985938369485  1.0000
  H   H11       1.0  0.32678652485853904  0.5963360762824967  0.549120522572518  1.0000
  H   H12       1.0  0.8236151955525974  0.7347151344578312  0.9004763903317269  1.0000
  H   H13       1.0  0.7532854371231007  0.6722801443541633  0.05443809553458002  1.0000
  Zn  Zn1       1.0  0.06242465715100609  0.5614707503246354  0.4088092677995845  1.0000
  Zn  Zn2       1.0  0.2739822839391737  0.5614666207977699  0.4088044523130918  1.0000
  C   C23       1.0  0.1684726459911985  0.5584960770934748  0.6720623791804694  1.0000
  C   C24       1.0  0.16793661796194126  0.5644431150185587  0.14555148079097724  1.0000
  C   C25       1.0  0.1700052172367883  0.8247898632412195  0.4028381821080189  1.0000
  C   C26       1.0  0.16640396271739033  0.2981475971005281  0.4147757561918213  1.0000
  O   O2        1.0  0.24829568543286887  0.5669291407162274  0.19924892636927738  1.0000
  O   O3        1.0  0.24868091418854715  0.5560058249145763  0.6183608647783503  1.0000
  O   O4        1.0  0.2499174043139432  0.7710414407757009  0.40096041957812156  1.0000
  O   O5        1.0  0.24705912306234434  0.3518935340345366  0.4166492634913539  1.0000
  O   O6        1.0  0.0893477458336025  0.7710438370907682  0.40096445661538294  1.0000
  O   O7        1.0  0.08811126751293362  0.5560099530028287  0.6183648234812789  1.0000
  O   O8        1.0  0.08772603646097688  0.5669332003044567  0.1992511521995588  1.0000
  O   O9        1.0  0.08648947414134756  0.3518975844462313  0.4166515973938485  1.0000
