data_image0
_chemical_formula_structural       NC5OC5NC4H8C9H10C7NH4Zn2C4O8
_chemical_formula_sum              "N3 C34 O9 H22 Zn2"
_cell_length_a       19.189071930511275
_cell_length_b       10.297183801781406
_cell_length_c       9.275157849593906
_cell_angle_alpha    86.08426286032497
_cell_angle_beta     89.71899716240229
_cell_angle_gamma    89.98878219536965

_space_group_name_H-M_alt    "P 1"
_space_group_IT_number       1

loop_
  _space_group_symop_operation_xyz
  'x, y, z'

loop_
  _atom_site_type_symbol
  _atom_site_label
  _atom_site_symmetry_multiplicity
  _atom_site_fract_x
  _atom_site_fract_y
  _atom_site_fract_z
  _atom_site_occupancy
  N   N1        1.0  0.6596618130217514  0.40772635261801815  0.4091491693551077  1.0000
  C   C1        1.0  0.6052482770299734  0.4536810437583749  0.38882798776738836  1.0000
  C   C2        1.0  0.5375648541154675  0.5108410188097436  0.3635514920015612  1.0000
  C   C3        1.0  0.5281130309079589  0.6068151354277544  0.25096109816686263  1.0000
  C   C4        1.0  0.46236558861125204  0.6624130131510881  0.22654756594287506  1.0000
  C   C5        1.0  0.40541448419904946  0.6219201597900671  0.31322054280427203  1.0000
  O   O1        1.0  0.34050147867562536  0.6811288182735404  0.2862918388730229  1.0000
  C   C6        1.0  0.2754748200802332  0.6217251221185167  0.31259454421252064  1.0000
  C   C7        1.0  0.2186372585903903  0.6996269651975281  0.34613400265283834  1.0000
  C   C8        1.0  0.1527835329579575  0.6443228288321846  0.3714913622118101  1.0000
  C   C9        1.0  0.14311122484952232  0.510383712897172  0.3620823428776716  1.0000
  C   C10       1.0  0.0753183093439085  0.4534290796471627  0.38801842381136736  1.0000
  N   N2        1.0  0.020816797129065805  0.4076395375641368  0.4088703661633506  1.0000
  C   C11       1.0  0.1994802046650719  0.4321550465129673  0.3264153351275858  1.0000
  C   C12       1.0  0.2653249636512633  0.48749905470669525  0.30110637731281  1.0000
  C   C13       1.0  0.4153445291306435  0.5268645099960996  0.42760637966037196  1.0000
  C   C14       1.0  0.4810829094979769  0.4712631176293304  0.452088024548769  1.0000
  H   H1        1.0  0.5715109877826167  0.6387404877656753  0.18226457850876288  1.0000
  H   H2        1.0  0.45551930532569845  0.7367163473822689  0.13943275397860222  1.0000
  H   H3        1.0  0.2256541757363363  0.8032939021729746  0.3533788528370654  1.0000
  H   H4        1.0  0.10947516277518701  0.7059395860063522  0.39820795849695756  1.0000
  H   H5        1.0  0.19246058517199355  0.328626143999136  0.317422809361962  1.0000
  H   H6        1.0  0.3079325046666678  0.42605818924537675  0.2706014972840951  1.0000
  H   H7        1.0  0.3726495297371099  0.49714072691329453  0.4990241183929611  1.0000
  H   H8        1.0  0.48793307110976575  0.39801842082471917  0.5404135100661955  1.0000
  C   C15       1.0  0.840244643700424  0.02620917294724645  0.4092139520279725  1.0000
  C   C16       1.0  0.8385444699238777  0.03475375790339563  0.25756609729756486  1.0000
  C   C17       1.0  0.8376732599883224  0.9225149112929287  0.17987246679109337  1.0000
  C   C18       1.0  0.838537590291745  0.7995775668527848  0.2569783328916442  1.0000
  C   C19       1.0  0.8402406413747223  0.7891468649206512  0.4088179994368162  1.0000
  C   C20       1.0  0.8410823893580132  0.9029301989998644  0.4839446348753456  1.0000
  C   C21       1.0  0.8358342091855276  0.9411886781242196  0.015854603964883925  1.0000
  C   C22       1.0  0.7952040452614066  0.8417854568139209  0.9356626764403725  1.0000
  C   C23       1.0  0.8746067882186819  0.842034868049859  0.9310233092325033  1.0000
  H   H9        1.0  0.840906392288012  0.35045512269330614  0.4676487294774676  1.0000
  H   H10       1.0  0.8378882553842397  0.12947480442159232  0.19902165860777354  1.0000
  H   H11       1.0  0.8378979080443226  0.7114841475484803  0.20005966324201885  1.0000
  H   H12       1.0  0.8423937598420506  0.8956104294944656  0.6009441395657844  1.0000
  H   H13       1.0  0.8434479681525573  0.5622297583089712  0.695600382098772  1.0000
  H   H14       1.0  0.8352437457175265  0.04144696282192471  0.9631363790161164  1.0000
  H   H15       1.0  0.7718064277234804  0.758722615044498  0.0012642386243251163  1.0000
  H   H16       1.0  0.7708413699635647  0.8817795963102668  0.8337198824907702  1.0000
  H   H17       1.0  0.8994420714403423  0.7591243364545572  0.9938074572905218  1.0000
  H   H18       1.0  0.8966515247238501  0.8821723985719996  0.826367679643607  1.0000
  C   C24       1.0  0.8411673493354801  0.40400587534606536  0.9858194120612511  1.0000
  C   C25       1.0  0.9012323277049606  0.4463400867252607  0.055447096020230235  1.0000
  C   C26       1.0  0.9577224604840899  0.49888998610893465  0.9754980415021551  1.0000
  C   C27       1.0  0.9548061626618498  0.5099411664514577  0.8248356111967627  1.0000
  C   C28       1.0  0.8961739350266554  0.4665546861009919  0.7538658251630639  1.0000
  C   C29       1.0  0.8393179427877905  0.41135012532328735  0.8322125993396607  1.0000
  C   C30       1.0  0.018470450106933718  0.5430331218580263  0.04843185147649143  1.0000
  N   N3        1.0  0.06729627908224911  0.5785122999660366  0.10705833741307735  1.0000
  H   H19       1.0  0.671609430292538  0.3602468262606098  0.09381065307074321  1.0000
  H   H20       1.0  0.9982005411951425  0.5510214281959989  0.7619579893682582  1.0000
  H   H21       1.0  0.8960197332945258  0.4733843766817858  0.6367979602081153  1.0000
  H   H22       1.0  0.7258858742193948  0.37643334493141406  0.5549118033877392  1.0000
  Zn  Zn1       1.0  0.7638833306850761  0.407697906334403  0.4090770305471989  1.0000
  Zn  Zn2       1.0  0.9165952711537662  0.40765749892581055  0.4089542934379504  1.0000
  C   C31       1.0  0.8396659761307966  0.4047868303314318  0.672228825375953  1.0000
  C   C32       1.0  0.8408142929999917  0.41057021478528855  0.14580263786500058  1.0000
  C   C33       1.0  0.8402503493314022  0.6448855678486076  0.40315009707884863  1.0000
  C   C34       1.0  0.8402298675298028  0.17046991721673965  0.4148814438464843  1.0000
  O   O2        1.0  0.8986491896413148  0.41275226536592324  0.19944789475726354  1.0000
  O   O3        1.0  0.8977359097030653  0.4025731278708913  0.6184899995176694  1.0000
  O   O4        1.0  0.8982070139393094  0.596455908088298  0.40120702256806284  1.0000
  O   O5        1.0  0.8981780335308874  0.21886949351747798  0.4167307636894322  1.0000
  O   O6        1.0  0.7823005161948806  0.5964859117578738  0.40130056033002015  1.0000
  O   O7        1.0  0.7818294121151461  0.40260469160697787  0.6185834596295499  1.0000
  O   O8        1.0  0.782742695885942  0.41278376879909795  0.1995396222410839  1.0000
  O   O9        1.0  0.7822715395366241  0.21890098859682916  0.41682259922499365  1.0000
