data_image0
_chemical_formula_structural       NC5OC5NC4H8C7NH5C6NCH7Zn2C4O8
_chemical_formula_sum              "N4 C32 O9 H20 Zn2"
_cell_length_a       19.189071930511275
_cell_length_b       9.275154477615127
_cell_length_c       9.273390368590327
_cell_angle_alpha    86.39388611738053
_cell_angle_beta     89.96896470301299
_cell_angle_gamma    89.42495848434854

_space_group_name_H-M_alt    "P 1"
_space_group_IT_number       1

loop_
  _space_group_symop_operation_xyz
  'x, y, z'

loop_
  _atom_site_type_symbol
  _atom_site_label
  _atom_site_symmetry_multiplicity
  _atom_site_fract_x
  _atom_site_fract_y
  _atom_site_fract_z
  _atom_site_occupancy
  N   N1        1.0  0.64888117836995  0.5608918924077124  0.41587936571563855  1.0000
  C   C1        1.0  0.5941822219592084  0.6118780197285292  0.39578154722560543  1.0000
  C   C2        1.0  0.5261437829220357  0.6752962623079228  0.37078287787969244  1.0000
  C   C3        1.0  0.5159482793720398  0.781708593222559  0.2586508483917902  1.0000
  C   C4        1.0  0.44985588530619125  0.8433938803773859  0.23450756993181424  1.0000
  C   C5        1.0  0.3933009611466999  0.798535909086771  0.3209916893928184  1.0000
  O   O1        1.0  0.328018645173933  0.864226397660927  0.29435068315481416  1.0000
  C   C6        1.0  0.2633610098582044  0.7983188097471777  0.32036466039117717  1.0000
  C   C7        1.0  0.20618265020275206  0.8848174276585338  0.3542906294883501  1.0000
  C   C8        1.0  0.14067431099827626  0.8234591094078552  0.3793792872766655  1.0000
  C   C9        1.0  0.13168947745217252  0.6747872269218314  0.3693113125898342  1.0000
  C   C10       1.0  0.0642518814922355  0.6115975538733109  0.39497065201109116  1.0000
  N   N2        1.0  0.010036034317797003  0.5607952571190726  0.4156001038500272  1.0000
  C   C11       1.0  0.1883965049656591  0.5879237455827243  0.33325594270955095  1.0000
  C   C12       1.0  0.25389576881430514  0.6493263667067555  0.30821588810473033  1.0000
  C   C13       1.0  0.4039736139546293  0.6931447923054476  0.4349238809061354  1.0000
  C   C14       1.0  0.47005710795638944  0.6314556718242983  0.4591352626503746  1.0000
  H   H1        1.0  0.5590331186988232  0.817075129846218  0.1901031856994475  1.0000
  H   H2        1.0  0.44243395460254664  0.9257785514777424  0.14774763059086804  1.0000
  H   H3        1.0  0.21266739289122683  0.9998872753393679  0.36204549722641866  1.0000
  H   H4        1.0  0.09709678167731793  0.8918757053290367  0.40640161743401504  1.0000
  H   H5        1.0  0.1819046540005463  0.47300536968843926  0.3237538751133542  1.0000
  H   H6        1.0  0.2967635697811903  0.5811012340251045  0.27740569971063156  1.0000
  H   H7        1.0  0.36158583196277033  0.6602245385681351  0.5062038910090045  1.0000
  H   H8        1.0  0.4774798740143423  0.5502472129258993  0.547111215346745  1.0000
  C   C15       1.0  0.8314787617035789  0.137436040915337  0.4140702645267824  1.0000
  C   C16       1.0  0.8123664766267618  0.2192702609974988  0.2870019571210223  1.0000
  C   C17       1.0  0.7875849967730995  0.15195999788666675  0.16666981418836735  1.0000
  C   C18       1.0  0.7815076920699184  0.001897552024578306  0.1719888966537304  1.0000
  C   C19       1.0  0.8012662303679675  0.9188247124322021  0.29615994656433564  1.0000
  C   C20       1.0  0.8274451956374685  0.984240205675227  0.4174216474875687  1.0000
  C   C21       1.0  0.7675457737191068  0.23736000746024533  0.03807054098429429  1.0000
  N   N3        1.0  0.7514397972625653  0.30600605759144084  0.9347096654064974  1.0000
  H   H9        1.0  0.8449460609859981  0.2178618101221617  0.7678572128713992  1.0000
  H   H10       1.0  0.8152130123644025  0.3361834701189581  0.2827231113179163  1.0000
  H   H11       1.0  0.762090243575389  0.9487935881094481  0.07950637449120501  1.0000
  H   H12       1.0  0.797606887067692  0.8023567476245416  0.29603593024172015  1.0000
  H   H13       1.0  0.8394704897938349  0.6879849210707624  0.6544666449673295  1.0000
  C   C22       1.0  0.8295156934763277  0.5563418677723245  0.9924823427318628  1.0000
  C   C23       1.0  0.8935341295643593  0.55345990197684  0.06602399860394903  1.0000
  C   C24       1.0  0.9563723338537875  0.5639816048853288  0.990602289119376  1.0000
  C   C25       1.0  0.9567880872719461  0.5777754558465888  0.8390285195783123  1.0000
  C   C26       1.0  0.8932059935807047  0.5782257255771487  0.7646673099834431  1.0000
  C   C27       1.0  0.8294082766144623  0.56533438172006  0.8390095160971729  1.0000
  N   N4        1.0  0.02079621831903622  0.5899569835937564  0.7582389864377337  1.0000
  C   C28       1.0  0.08960100534320349  0.5901085161575712  0.8251746525497006  1.0000
  H   H14       1.0  0.719851812202447  0.4871119015074088  0.2781332887401222  1.0000
  H   H15       1.0  0.004393203303377562  0.5626420203405763  0.05168091533811747  1.0000
  H   H16       1.0  0.6675363662930957  0.45336205075493163  0.7432006963411704  1.0000
  H   H17       1.0  0.018489589608904792  0.5995132819596328  0.6454027192775782  1.0000
  H   H18       1.0  0.09368314479732122  0.68259958643814  0.8950057394809265  1.0000
  H   H19       1.0  0.09859238157457573  0.4870411920253576  0.8903141258469542  1.0000
  H   H20       1.0  0.1303883801491208  0.6009976930222367  0.7402956450929059  1.0000
  Zn  Zn1       1.0  0.7531026944680818  0.5608602474636348  0.41580707883999546  1.0000
  Zn  Zn2       1.0  0.9058145900761488  0.5608152762851168  0.415684129058028  1.0000
  C   C29       1.0  0.8294543718550753  0.5578906038180882  0.6789750299024508  1.0000
  C   C30       1.0  0.8294645716147638  0.5637867401887227  0.1525163253219477  1.0000
  C   C31       1.0  0.8282047644027738  0.8241151604917463  0.41104444999961065  1.0000
  C   C32       1.0  0.8307141351988383  0.2975604520503401  0.4204469752556801  1.0000
  O   O2        1.0  0.887400813131956  0.5662619507714763  0.20617850811154526  1.0000
  O   O3        1.0  0.8874229308254408  0.5553801690255054  0.6252191118541177  1.0000
  O   O4        1.0  0.8864130755749322  0.7703598815592398  0.408863279491571  1.0000
  O   O5        1.0  0.8884106162368248  0.35128224741935754  0.4225342324852599  1.0000
  O   O6        1.0  0.7705066161943245  0.7703932763462298  0.4089569754471454  1.0000
  O   O7        1.0  0.7715164631999778  0.5554152952940548  0.6253127378131811  1.0000
  O   O8        1.0  0.7714943460120974  0.5662970083869135  0.20627040094584292  1.0000
  O   O9        1.0  0.7725041491495243  0.3513172958700141  0.4226262333427717  1.0000
