data_image0
_chemical_formula_structural       NC9NC3OH6C6H4C6OCH7Zn2C4O8
_chemical_formula_sum              "N2 C29 O10 H17 Zn2"
_cell_length_a       15.78231758774541
_cell_length_b       10.681118228259553
_cell_length_c       9.273891588657154
_cell_angle_alpha    86.07629789491638
_cell_angle_beta     89.76748324947235
_cell_angle_gamma    89.63144314392761

_space_group_name_H-M_alt    "P 1"
_space_group_IT_number       1

loop_
  _space_group_symop_operation_xyz
  'x, y, z'

loop_
  _atom_site_type_symbol
  _atom_site_label
  _atom_site_symmetry_multiplicity
  _atom_site_fract_x
  _atom_site_fract_y
  _atom_site_fract_z
  _atom_site_occupancy
  N   N1        1.0  0.8030633614550714  0.3503153819319371  0.4127927525762105  1.0000
  C   C1        1.0  0.7544446496342657  0.27139266291598774  0.439518008305098  1.0000
  C   C2        1.0  0.6940827369817505  0.17343038777570555  0.47269093568401255  1.0000
  C   C3        1.0  0.7136104701454695  0.0503732904384464  0.5142733437490725  1.0000
  C   C4        1.0  0.6368142633963645  0.9907356548559804  0.5345085485578569  1.0000
  C   C5        1.0  0.5751332680170453  0.0818123510987332  0.5037786232459802  1.0000
  C   C6        1.0  0.48202352774205787  0.06497446323517254  0.5095619653702206  1.0000
  C   C7        1.0  0.42839200041558917  0.1682198730843758  0.4745425793732676  1.0000
  C   C8        1.0  0.34017010681015397  0.15441327124119075  0.47929272870870837  1.0000
  C   C9        1.0  0.2858454165984802  0.26066258784152185  0.4432452830441171  1.0000
  N   N2        1.0  0.2421812500336582  0.34607331911952355  0.41426635847904136  1.0000
  C   C10       1.0  0.3048982768765088  0.03720761098247216  0.5191166406195886  1.0000
  C   C11       1.0  0.3575990906907641  0.9341756961616527  0.5540684608309598  1.0000
  C   C12       1.0  0.44563490339501244  0.9476029973996419  0.549447394079084  1.0000
  O   O1        1.0  0.6117101520248073  0.1897492239237406  0.4672515003704518  1.0000
  H   H1        1.0  0.7760255841526396  0.008873578591225286  0.5282399869494754  1.0000
  H   H2        1.0  0.6279746005666574  0.8926748007889145  0.5676613759793869  1.0000
  H   H3        1.0  0.45509799314897736  0.259426617807143  0.4435472741908226  1.0000
  H   H4        1.0  0.2367689440960696  0.025514118167369707  0.5231374144694818  1.0000
  H   H5        1.0  0.3301634679520045  0.843592491778738  0.5848523361573299  1.0000
  H   H6        1.0  0.48463152099636847  0.8659945370458562  0.5771408534293552  1.0000
  C   C13       1.0  0.022626339903943915  0.9804443642867356  0.4135357611642809  1.0000
  C   C14       1.0  0.05944733888454485  0.9064723478721004  0.5281298351895565  1.0000
  C   C15       1.0  0.05944732614631753  0.7755901093029908  0.5281297692469664  1.0000
  C   C16       1.0  0.02262632547360986  0.7159347688711986  0.41353582342538564  1.0000
  C   C17       1.0  0.9858358075746002  0.7898958322647389  0.29903644715145483  1.0000
  C   C18       1.0  0.9858358202946667  0.9207880906990968  0.29903650569490714  1.0000
  H   H7        1.0  0.08830942540972136  0.9496722243409388  0.617954034195008  1.0000
  H   H8        1.0  0.08830932131783625  0.721168196551256  0.6179540083845494  1.0000
  H   H9        1.0  0.9569699578880878  0.7467414434021679  0.20920051989821586  1.0000
  H   H10       1.0  0.9569699357164367  0.9751658825584113  0.2092005081034578  1.0000
  C   C19       1.0  0.02401441129882498  0.34485948439521286  0.9902651178399292  1.0000
  C   C20       1.0  0.09340390629213345  0.39708384461123103  0.05907168054984035  1.0000
  C   C21       1.0  0.15798720024514679  0.45870589787806315  0.9794786693801076  1.0000
  C   C22       1.0  0.1534119418014046  0.4684151581185976  0.8280227036754089  1.0000
  C   C23       1.0  0.08580257381268458  0.4154153283717439  0.7578799167829278  1.0000
  C   C24       1.0  0.02123822476997182  0.3515195718581261  0.8368064427177293  1.0000
  O   O2        1.0  0.22506271308739156  0.5094107324726234  0.054910374412964646  1.0000
  C   C25       1.0  0.2948370173960344  0.5746433073919237  0.9880681582004565  1.0000
  H   H11       1.0  0.8224736500225434  0.2698903404523738  0.10060601770214395  1.0000
  H   H12       1.0  0.2022217570669668  0.5157641657063545  0.7632643683522593  1.0000
  H   H13       1.0  0.08511889044786725  0.42187616347495016  0.640796446850433  1.0000
  H   H14       1.0  0.8868372830753614  0.2960691457632709  0.5609127655875619  1.0000
  H   H15       1.0  0.2720925048869658  0.6596079020770107  0.9235962607018205  1.0000
  H   H16       1.0  0.3301665495519861  0.5121500589303694  0.9177740446287195  1.0000
  H   H17       1.0  0.3382103333625066  0.604157751395199  0.07305725836044275  1.0000
  Zn  Zn1       1.0  0.9297832677111193  0.34908793457237075  0.41322632019639904  1.0000
  Zn  Zn2       1.0  0.11546127664467604  0.34729063822257045  0.41384457361316307  1.0000
  C   C26       1.0  0.021761107493259546  0.3452718045786958  0.6767920173900293  1.0000
  C   C27       1.0  0.023485463996622206  0.3511083298063318  0.15027902464241572  1.0000
  C   C28       1.0  0.02264079476907298  0.5768662542650116  0.4077920182282524  1.0000
  C   C29       1.0  0.0226057131099222  0.11951237675466153  0.4192791004391161  1.0000
  O   O3        1.0  0.09377178117140245  0.3525179713977915  0.20421577745957098  1.0000
  O   O4        1.0  0.09240010416310945  0.34249710864394883  0.6233240896894678  1.0000
  O   O5        1.0  0.09310950796223483  0.5295125766631326  0.4061046839839293  1.0000
  O   O6        1.0  0.09306231436736874  0.16550251210010214  0.42143507488072673  1.0000
  O   O7        1.0  0.9521821666256597  0.5308760613094716  0.40563581871027377  1.0000
  O   O8        1.0  0.9514727630746541  0.3438620972702746  0.6228551475623281  1.0000
  O   O9        1.0  0.9528444458223948  0.35388290274976564  0.2037451023777388  1.0000
  O   O10       1.0  0.9521349786605033  0.16686743534521464  0.4209645078647166  1.0000
