data_image0
_chemical_formula_structural       NC9NC3SH6C9H10C7ONH7Zn2C4O8
_chemical_formula_sum              "N3 C32 S1 H23 O9 Zn2"
_cell_length_a       16.77567553997237
_cell_length_b       9.272676604525723
_cell_length_c       10.297855452804892
_cell_angle_alpha    85.79104961089988
_cell_angle_beta     90.3897855956152
_cell_angle_gamma    91.44448428757873

_space_group_name_H-M_alt    "P 1"
_space_group_IT_number       1

loop_
  _space_group_symop_operation_xyz
  'x, y, z'

loop_
  _atom_site_type_symbol
  _atom_site_label
  _atom_site_symmetry_multiplicity
  _atom_site_fract_x
  _atom_site_fract_y
  _atom_site_fract_z
  _atom_site_occupancy
  N   N1        1.0  0.7593492264427794  0.5996263615423298  0.5806451258118772  1.0000
  C   C1        1.0  0.7048907158400528  0.6543981958597924  0.62247842769299  1.0000
  C   C2        1.0  0.6373068856475027  0.7223664210888412  0.6743903569837879  1.0000
  C   C3        1.0  0.6399590518393649  0.8201718175020691  0.7698660946181461  1.0000
  C   C4        1.0  0.5645781627335646  0.8684445017499963  0.8015827450510042  1.0000
  C   C5        1.0  0.5022579229576026  0.8084413605243174  0.7307071642949402  1.0000
  C   C6        1.0  0.41592144959237015  0.8373861076442644  0.7416794105602411  1.0000
  C   C7        1.0  0.3586354709479737  0.7490114422876315  0.6830174833150724  1.0000
  C   C8        1.0  0.2771368165116973  0.7757236515812361  0.6929237255043212  1.0000
  C   C9        1.0  0.2191675974692227  0.6843856157534012  0.6328540028679768  1.0000
  N   N2        1.0  0.172577438249425  0.6109629239043124  0.5845668195102685  1.0000
  C   C10       1.0  0.2520961876993285  0.8911587974952258  0.7613321712877092  1.0000
  C   C11       1.0  0.30829148872042594  0.9797099713611688  0.8195331252451954  1.0000
  C   C12       1.0  0.3896346279962023  0.953401106615284  0.8099231971674348  1.0000
  S   S1        1.0  0.542242485171752  0.6950909401174195  0.6291101718129044  1.0000
  H   H1        1.0  0.6945484047296198  0.8555438081073771  0.815789586472845  1.0000
  H   H2        1.0  0.5567119099202127  0.943834490466095  0.8753916097436023  1.0000
  H   H3        1.0  0.376952896858188  0.6587355625428069  0.6301869669663551  1.0000
  H   H4        1.0  0.1892271442132901  0.9127678523051923  0.7695106573559606  1.0000
  H   H5        1.0  0.2887897977262002  0.0693067672305383  0.872043307705711  1.0000
  H   H6        1.0  0.4314562841132839  0.025179159045117118  0.8549864880338974  1.0000
  C   C13       1.0  0.9637080424907488  0.18174477463619373  0.5809252787561696  1.0000
  C   C14       1.0  0.9317774178630532  0.24494193687195118  0.6881965076130074  1.0000
  C   C15       1.0  0.9071417608233727  0.16010245308450055  0.7987114959344452  1.0000
  C   C16       1.0  0.9136417187349943  0.009529831022784936  0.8056743389542258  1.0000
  C   C17       1.0  0.9442660550994807  0.9448474064480565  0.6973899626983797  1.0000
  C   C18       1.0  0.9682262189124327  0.028833629503498086  0.584297974755316  1.0000
  C   C19       1.0  0.8861534477864896  0.9251298201869275  0.9301882934358054  1.0000
  C   C20       1.0  0.8458558625004301  0.7779329379628891  0.9168731267280619  1.0000
  C   C21       1.0  0.9300449016374395  0.787672926987179  0.9726321197837132  1.0000
  H   H7        1.0  0.9814403097608644  0.48110765931286753  0.3682450691183053  1.0000
  H   H8        1.0  0.927570138071873  0.361349070105096  0.688031712389334  1.0000
  H   H9        1.0  0.8835105338599613  0.2128812758436766  0.8801004446530172  1.0000
  H   H10       1.0  0.948069826995229  0.8285511344351726  0.6986322294391214  1.0000
  H   H11       1.0  0.9889546139322707  0.9526621633029597  0.26644966052252217  1.0000
  H   H12       1.0  0.863571933118556  0.984613863409829  0.011756334335372714  1.0000
  H   H13       1.0  0.8421673911236223  0.7386049550031323  0.8178165146617306  1.0000
  H   H14       1.0  0.799635574491355  0.747864907216057  0.9913696598082831  1.0000
  H   H15       1.0  0.9774724750675445  0.7541323037874696  0.9075225822044193  1.0000
  H   H16       1.0  0.9330270031644498  0.7632913350680817  0.07973424132169171  1.0000
  C   C22       1.0  0.9659991604640896  0.6054334450488916  0.20117047585947614  1.0000
  C   C23       1.0  0.8846252056792623  0.6379675861113665  0.19714576199651226  1.0000
  C   C24       1.0  0.8431698864831005  0.6532219387369695  0.07810001641443431  1.0000
  C   C25       1.0  0.8845265245261958  0.6376404694686417  0.9619106375037476  1.0000
  C   C26       1.0  0.965935064472242  0.6051449291477417  0.9640527454880155  1.0000
  C   C27       1.0  0.006088509503024749  0.5889200592797894  0.0841371634423056  1.0000
  C   C28       1.0  0.7572844719991992  0.6879286300301346  0.07642667247510171  1.0000
  O   O1        1.0  0.7281070259680286  0.748663293672768  0.17020121114642264  1.0000
  N   N3        1.0  0.7061045962776059  0.6524237205559575  0.9711828499543619  1.0000
  H   H17       1.0  0.11986140518394439  0.5444625989418961  0.41601172629064165  1.0000
  H   H18       1.0  0.8531691697041084  0.6502525869383531  0.287056624773838  1.0000
  H   H19       1.0  0.8539865910990014  0.6534314353692172  0.8692949593766124  1.0000
  H   H20       1.0  0.06880370007587876  0.5638420290378974  0.0864856291422671  1.0000
  H   H21       1.0  0.12010991694371409  0.5460075213723197  0.7606787806018983  1.0000
  H   H22       1.0  0.6467467587647379  0.6838282580652106  0.9696629840782559  1.0000
  H   H23       1.0  0.7247044181279538  0.58714300517467  0.8994130612950532  1.0000
  Zn  Zn1       1.0  0.87859794385318  0.6028939948664014  0.5817843355641836  1.0000
  Zn  Zn2       1.0  0.05332865222038751  0.6076835204134713  0.5834382300458718  1.0000
  C   C29       1.0  0.9659147603666689  0.5994535416258026  0.8198287802847632  1.0000
  C   C30       1.0  0.966013753456735  0.6111258457653783  0.3453939381221174  1.0000
  C   C31       1.0  0.9673684960155501  0.8687176604910483  0.5784842600635585  1.0000
  C   C32       1.0  0.9645599489359385  0.341859992360775  0.5867385201312579  1.0000
  O   O2        1.0  0.03232801064499946  0.6148475750337485  0.39442426883836457  1.0000
  O   O3        1.0  0.0322170620635911  0.5993658634828936  0.7720533389625646  1.0000
  O   O4        1.0  0.03339007798925996  0.8168000197632955  0.5771659288414434  1.0000
  O   O5        1.0  0.031154935158789636  0.39741342747359454  0.5893115810430931  1.0000
  O   O6        1.0  0.9007716012877717  0.8131640861734211  0.575910983995743  1.0000
  O   O7        1.0  0.899598594607012  0.5957316627995193  0.7707983317577094  1.0000
  O   O8        1.0  0.8997095431045617  0.6112133246808866  0.393167699737492  1.0000
  O   O9        1.0  0.8985364675518867  0.39377916676762664  0.5880551092873945  1.0000
