data_image0
_chemical_formula_structural       NC9NC3OH6C6NH5C7NH3Zn2C4O8
_chemical_formula_sum              "N4 C29 O9 H14 Zn2"
_cell_length_a       15.78231758774541
_cell_length_b       9.274771166103584
_cell_length_c       10.302823150593484
_cell_angle_alpha    85.45577553533455
_cell_angle_beta     90.08385050025007
_cell_angle_gamma    90.23039320205511

_space_group_name_H-M_alt    "P 1"
_space_group_IT_number       1

loop_
  _space_group_symop_operation_xyz
  'x, y, z'

loop_
  _atom_site_type_symbol
  _atom_site_label
  _atom_site_symmetry_multiplicity
  _atom_site_fract_x
  _atom_site_fract_y
  _atom_site_fract_z
  _atom_site_occupancy
  N   N1        1.0  0.8074978031132108  0.5696505202693471  0.5677993758233217  1.0000
  C   C1        1.0  0.7584070019983766  0.4785066447024609  0.5920206987121261  1.0000
  C   C2        1.0  0.6974591130555176  0.3653749406025144  0.6220855981944462  1.0000
  C   C3        1.0  0.7162504765421299  0.22326328937637638  0.6597725724183765  1.0000
  C   C4        1.0  0.6390976675657688  0.15439042009732382  0.6781116828084046  1.0000
  C   C5        1.0  0.5779618202722147  0.25956930653658805  0.6502602757519813  1.0000
  C   C6        1.0  0.48475162445001063  0.2401233379434753  0.6555013122478888  1.0000
  C   C7        1.0  0.4317374901412189  0.3593567890144018  0.6237632721280316  1.0000
  C   C8        1.0  0.34343325145826126  0.3434115609736236  0.6280679548219562  1.0000
  C   C9        1.0  0.2897438876198141  0.4661141711558786  0.5953982361578831  1.0000
  N   N2        1.0  0.2465904368045466  0.5647512389528939  0.5691347101876214  1.0000
  C   C10       1.0  0.3074607719220069  0.20805541959685578  0.6641599464998845  1.0000
  C   C11       1.0  0.35954548501983924  0.0890684803343615  0.6958367248220098  1.0000
  C   C12       1.0  0.4476613760209217  0.10457566738389733  0.6916490271768385  1.0000
  O   O1        1.0  0.6151844209015082  0.38421995884826693  0.6171553100604352  1.0000
  H   H1        1.0  0.7784170751994267  0.1753381424001359  0.672431138639018  1.0000
  H   H2        1.0  0.6296712663692965  0.04114535678530796  0.7081586636459716  1.0000
  H   H3        1.0  0.4589886953156015  0.46468786762009157  0.5956725828767067  1.0000
  H   H4        1.0  0.23926168941452108  0.19455064006340295  0.6678036671380263  1.0000
  H   H5        1.0  0.3315683787370466  0.9844574996463452  0.7237357950037764  1.0000
  H   H6        1.0  0.48617002849419855  0.010329632028603038  0.716747513665963  1.0000
  C   C13       1.0  0.024446964793023645  0.1436333175203999  0.5691667837368997  1.0000
  C   C14       1.0  0.004950364366185007  0.22715960978807792  0.45300771632514986  1.0000
  C   C15       1.0  0.9933643642441485  0.16223950096365614  0.33613610293371265  1.0000
  C   C16       1.0  0.0013193829768578514  0.012415131290261837  0.3345774352225448  1.0000
  C   C17       1.0  0.01924924522667748  0.9275868921569449  0.4491368665725322  1.0000
  C   C18       1.0  0.0296493037341261  0.9907573102897002  0.5677785825253285  1.0000
  N   N3        1.0  0.9743883190463557  0.2488594830626496  0.21870261475357777  1.0000
  H   H7        1.0  0.11979952558952117  0.22222970982052256  0.8535886303889068  1.0000
  H   H8        1.0  0.9928061319529258  0.961022899805892  0.24465773941988617  1.0000
  H   H9        1.0  0.09043904637418171  0.6930127185965995  0.7612737237773084  1.0000
  H   H10       1.0  0.968550761695403  0.36099851790874826  0.2186426944398048  1.0000
  H   H11       1.0  0.9659548306102325  0.20148356927043373  0.13091824637280847  1.0000
  C   C19       1.0  0.02704813902167101  0.5671953141730266  0.18722459132195213  1.0000
  C   C20       1.0  0.9383267591355461  0.5786403794694943  0.1851079982842552  1.0000
  C   C21       1.0  0.8941870356112532  0.5843342889343586  0.06695246574169111  1.0000
  C   C22       1.0  0.9383267420821425  0.5786402854688668  0.9498070045399515  1.0000
  C   C23       1.0  0.02704813846975828  0.5671953066852431  0.9497207579476208  1.0000
  C   C24       1.0  0.07094526804106249  0.5615325400303601  0.06897493185468062  1.0000
  C   C25       1.0  0.8032346426917791  0.5960669246407093  0.06591174364227803  1.0000
  N   N4        1.0  0.7301386376290357  0.6054963066667278  0.0650753081484654  1.0000
  H   H12       1.0  0.9033361763287845  0.5831541661629625  0.2751318793697313  1.0000
  H   H13       1.0  0.9033362092794035  0.583154059587268  0.8589823431482185  1.0000
  H   H14       1.0  0.1393640005796869  0.5527065425122899  0.06975782913782536  1.0000
  Zn  Zn1       1.0  0.9342104249674763  0.5682328406910273  0.5681922218820912  1.0000
  Zn  Zn2       1.0  0.11987771416169019  0.5661571462250734  0.5687524963761181  1.0000
  C   C26       1.0  0.027010941514196803  0.5614491562309558  0.8056020573585163  1.0000
  C   C27       1.0  0.027079236272498957  0.5729426279520438  0.33134279146151124  1.0000
  C   C28       1.0  0.02866157967004  0.8306328617376049  0.5628674145254329  1.0000
  C   C29       1.0  0.025428524119053053  0.3037571902030647  0.5740775061599859  1.0000
  O   O2        1.0  0.09754940278571173  0.5740774710686594  0.37992280752707774  1.0000
  O   O3        1.0  0.09745794476838897  0.5587378209138543  0.7574469047256425  1.0000
  O   O4        1.0  0.09878990612297796  0.7761070780217733  0.5614369579260199  1.0000
  O   O5        1.0  0.09621737813882203  0.3567082249872277  0.5759326567747932  1.0000
  O   O6        1.0  0.9578706976312203  0.777681762638776  0.5610120612853906  1.0000
  O   O7        1.0  0.9565387469151099  0.5603142384830895  0.7570219360215968  1.0000
  O   O8        1.0  0.9566302046801523  0.5756538383737893  0.37949627799961544  1.0000
  O   O9        1.0  0.955298179966439  0.3582845819757736  0.575506224601213  1.0000
