data_image0
_chemical_formula_structural       NC9NC3OH6C6NCH9C6ClH3Zn2C4O8
_chemical_formula_sum              "N3 C29 O9 H18 Cl1 Zn2"
_cell_length_a       15.78231758774541
_cell_length_b       9.273386996610926
_cell_length_c       10.302974078461048
_cell_angle_alpha    85.46621229036245
_cell_angle_beta     90.08385130592438
_cell_angle_gamma    89.03191128213776

_space_group_name_H-M_alt    "P 1"
_space_group_IT_number       1

loop_
  _space_group_symop_operation_xyz
  'x, y, z'

loop_
  _atom_site_type_symbol
  _atom_site_label
  _atom_site_symmetry_multiplicity
  _atom_site_fract_x
  _atom_site_fract_y
  _atom_site_fract_z
  _atom_site_occupancy
  N   N1        1.0  0.7882018312501662  0.5700786870492094  0.5680198872404192  1.0000
  C   C1        1.0  0.740231476237404  0.4789099495346733  0.5922292692548532  1.0000
  C   C2        1.0  0.6806743332562627  0.3657473857144484  0.622279347204457  1.0000
  C   C3        1.0  0.7012126977851153  0.22359696970685983  0.6599477043577291  1.0000
  C   C4        1.0  0.6249065539025169  0.15470531349706262  0.6782777910947981  1.0000
  C   C5        1.0  0.5624777258956166  0.25991289031109543  0.6504401621968539  1.0000
  C   C6        1.0  0.46950658244678517  0.24046161730597082  0.655678649978003  1.0000
  C   C7        1.0  0.4150266924336002  0.35972759251317177  0.6239562315445032  1.0000
  C   C8        1.0  0.3269184709657355  0.34377801498169736  0.628258824248568  1.0000
  C   C9        1.0  0.2717207045002383  0.46651409560686236  0.5956051819126824  1.0000
  N   N2        1.0  0.2273546925832142  0.5651780693217052  0.5693545792550101  1.0000
  C   C10       1.0  0.29260994592072553  0.2083849515703404  0.6643330809698351  1.0000
  C   C11       1.0  0.34615738431427484  0.08936555541429891  0.6959942698391943  1.0000
  C   C12       1.0  0.43408264300757315  0.10487697246704773  0.691808604787135  1.0000
  O   O1        1.0  0.5981679763080968  0.38459754444647104  0.617351526841287  1.0000
  H   H1        1.0  0.7639684478661565  0.17565874985576313  0.6725999929789153  1.0000
  H   H2        1.0  0.6168722922100728  0.04142935954309901  0.7083099362520957  1.0000
  H   H3        1.0  0.4409830459703938  0.4650874030085965  0.5958793433032707  1.0000
  H   H4        1.0  0.2245768798080826  0.19487648824430037  0.6679750315262583  1.0000
  H   H5        1.0  0.3194662773912835  0.9847260392626563  0.7238796333555333  1.0000
  H   H6        1.0  0.47374987692515597  0.010605228966322766  0.7168947432109951  1.0000
  C   C13       1.0  0.010388088867119722  0.14394527688514525  0.5693331205075725  1.0000
  C   C14       1.0  0.02526693978838311  0.22725485121684108  0.4519928284718658  1.0000
  C   C15       1.0  0.03216721551718457  0.16267497152633623  0.33462103163864354  1.0000
  C   C16       1.0  0.02429302245951968  0.012462176989430425  0.33158838370474664  1.0000
  C   C17       1.0  0.010907482212697555  0.9281730241521916  0.4485254432507133  1.0000
  C   C18       1.0  0.005176570602678731  0.991300289893413  0.5680526227973708  1.0000
  N   N3        1.0  0.03047695833851802  0.9428538666575628  0.21179071995030974  1.0000
  C   C19       1.0  0.04459331332467073  0.0205928483360025  0.08514322273422681  1.0000
  H   H7        1.0  0.02770028639008703  0.40589678606246243  0.7825297309042996  1.0000
  H   H8        1.0  0.02958900201504289  0.34385251393435134  0.45041318515548956  1.0000
  H   H9        1.0  0.04285352142391317  0.23115784768102499  0.24646769296873836  1.0000
  H   H10       1.0  0.006907790584908647  0.8118165881588278  0.446465221368594  1.0000
  H   H11       1.0  0.036376582164898474  0.8595901416961663  0.8843547336336738  1.0000
  H   H12       1.0  0.02448609214592221  0.830553597126132  0.2144646563305361  1.0000
  H   H13       1.0  0.9920617940179928  0.09975262223133119  0.062426660734818055  1.0000
  H   H14       1.0  0.10592686749394459  0.07746016288487279  0.08553912338789016  1.0000
  H   H15       1.0  0.04672947649893874  0.9431324237365448  0.008291514682189137  1.0000
  C   C20       1.0  0.007782345887958894  0.5676228120972477  0.18745036559298867  1.0000
  C   C21       1.0  0.9939640150388243  0.4179358273665488  0.19686569234741794  1.0000
  C   C22       1.0  0.9871077796585912  0.3436652220793648  0.08458052962856821  1.0000
  C   C23       1.0  0.9939640524365522  0.4179359084255167  0.9617577933683581  1.0000
  C   C24       1.0  0.0077823441845534785  0.567622737646527  0.9499353847723855  1.0000
  C   C25       1.0  0.014624166467937842  0.6417365998829885  0.0634352204568931  1.0000
  Cl  Cl1       1.0  0.9698454044224856  0.15667061766865098  0.09784605226630137  1.0000
  H   H16       1.0  0.9884681536998324  0.3584018179146906  0.2911356174152935  1.0000
  H   H17       1.0  0.9884682130405751  0.3584017966666046  0.8759346515524621  1.0000
  H   H18       1.0  0.02528123995772979  0.7571796957369366  0.05524551272061218  1.0000
  Zn  Zn1       1.0  0.9149318808642354  0.5686606207605531  0.5684125473313464  1.0000
  Zn  Zn2       1.0  0.10062468689944692  0.566584360092991  0.568972549759124  1.0000
  C   C26       1.0  0.00781579248688402  0.5618750853313552  0.8058180427126954  1.0000
  C   C27       1.0  0.0077427918402464  0.5733716932793391  0.3315671851661457  1.0000
  C   C28       1.0  0.006157311129300519  0.8311322183357857  0.5631211738415238  1.0000
  C   C29       1.0  0.009401220494952955  0.30411282756006347  0.5742641256814556  1.0000
  O   O2        1.0  0.07819900799706093  0.5745068458436973  0.3801466338532282  1.0000
  O   O3        1.0  0.07829612616591008  0.5591630105357766  0.7576632508334444  1.0000
  O   O4        1.0  0.07695593153335367  0.7765915612796649  0.5616838069673991  1.0000
  O   O5        1.0  0.07953913920176525  0.3570783061293039  0.5761259801701974  1.0000
  O   O6        1.0  0.936017365194066  0.7781666754343366  0.5612591167223402  1.0000
  O   O7        1.0  0.9373575491616479  0.5607398581153895  0.7572384887463148  1.0000
  O   O8        1.0  0.937260431358409  0.5760836431454974  0.3797203109591569  1.0000
  O   O9        1.0  0.9386005626231139  0.3586550931117054  0.5756997546272704  1.0000
