data_image0
_chemical_formula_structural       NC9NC3OH6C7NC2NH8C7ONH7Zn2C4O8
_chemical_formula_sum              "N5 C32 O10 H21 Zn2"
_cell_length_a       15.78231758774541
_cell_length_b       9.273995741505848
_cell_length_c       10.297855452804894
_cell_angle_alpha    85.68463501801465
_cell_angle_beta     90.0760746706638
_cell_angle_gamma    90.21461439936415

_space_group_name_H-M_alt    "P 1"
_space_group_IT_number       1

loop_
  _space_group_symop_operation_xyz
  'x, y, z'

loop_
  _atom_site_type_symbol
  _atom_site_label
  _atom_site_symmetry_multiplicity
  _atom_site_fract_x
  _atom_site_fract_y
  _atom_site_fract_z
  _atom_site_occupancy
  N   N1        1.0  0.8073759640147227  0.5697895058379643  0.5732113265110301  1.0000
  C   C1        1.0  0.7582975069202241  0.4786596612796339  0.5970884807161938  1.0000
  C   C2        1.0  0.6973649398757761  0.3655453729405134  0.6267261833821316  1.0000
  C   C3        1.0  0.7161755572327233  0.22345562848346257  0.6638764892704261  1.0000
  C   C4        1.0  0.639032072773  0.15459334813653472  0.681955547003988  1.0000
  C   C5        1.0  0.577881971722594  0.2597560055854289  0.6545013568827426  1.0000
  C   C6        1.0  0.4846744030010308  0.24031300308572792  0.659669000600571  1.0000
  C   C7        1.0  0.43164412502116156  0.35952811842462995  0.6283811719271144  1.0000
  C   C8        1.0  0.34334203985779477  0.343585319825127  0.6326256779359127  1.0000
  C   C9        1.0  0.2896360633767701  0.4662690638789236  0.6004192656695686  1.0000
  N   N2        1.0  0.2464692582552597  0.5648909662253585  0.5745281776151264  1.0000
  C   C10       1.0  0.3073878813582074  0.20824997015016344  0.6682066124367207  1.0000
  C   C11       1.0  0.3594887043611371  0.08928132707781192  0.6994341123227529  1.0000
  C   C12       1.0  0.4476025011169357  0.10478615190349515  0.6953049375672793  1.0000
  O   O1        1.0  0.6150876885071345  0.3843874609668083  0.6218670954415065  1.0000
  H   H1        1.0  0.7783486535302592  0.17553788831682307  0.6763540458743731  1.0000
  H   H2        1.0  0.6296210131227126  0.04136573605131955  0.7115748785838862  1.0000
  H   H3        1.0  0.45888107360240016  0.46484301916954923  0.6006881733817228  1.0000
  H   H4        1.0  0.23919062295959942  0.19474724902287835  0.6717993654727291  1.0000
  H   H5        1.0  0.3315257571681627  0.9846864134915279  0.7269382108335776  1.0000
  H   H6        1.0  0.486123913032269  0.010554605326770659  0.7200475680813376  1.0000
  C   C13       1.0  0.024392821957444064  0.14387982483627315  0.5729132806020195  1.0000
  C   C14       1.0  0.039280915441520764  0.2269922774427187  0.45549021500959386  1.0000
  C   C15       1.0  0.06174988109100197  0.16166774564208145  0.34296187672656453  1.0000
  C   C16       1.0  0.07026787394358353  0.011126048832618151  0.3446431883964504  1.0000
  C   C17       1.0  0.053600751124807305  0.9267562339591277  0.46098489396319375  1.0000
  C   C18       1.0  0.029460418269015916  0.9907894241812825  0.5748374125510987  1.0000
  C   C19       1.0  0.09511397172879632  0.9438949879514288  0.22401295885270817  1.0000
  N   N3        1.0  0.09821238423216178  0.018187482400852776  0.10599285150040649  1.0000
  C   C20       1.0  0.1236345739526108  0.9200458110310323  0.024376238689418624  1.0000
  C   C21       1.0  0.13571698960131828  0.7889717373410208  0.09336824184708536  1.0000
  N   N4        1.0  0.11781682103724721  0.8041250396246681  0.21890417532308157  1.0000
  H   H7        1.0  0.955664175921586  0.40918093815781  0.7596490878173487  1.0000
  H   H8        1.0  0.03559473832710001  0.34387878758745805  0.451289778005593  1.0000
  H   H9        1.0  0.07371680269773545  0.22976596257075288  0.2547600307417861  1.0000
  H   H10       1.0  0.05646955082349023  0.8101614790372237  0.46279356184294707  1.0000
  H   H11       1.0  0.03054702029061084  0.6926687430947698  0.7908460968933513  1.0000
  H   H12       1.0  0.13301905953075002  0.9430000464094674  0.920843899226524  1.0000
  H   H13       1.0  0.15652986465353924  0.6896419267303797  0.054924852322728576  1.0000
  H   H14       1.0  0.12241381712429056  0.7235056695202723  0.29484441044200493  1.0000
  C   C22       1.0  0.02696071359598572  0.5674776275171893  0.19243377391382574  1.0000
  C   C23       1.0  0.9405042905590539  0.6032087574556493  0.18886373147378732  1.0000
  C   C24       1.0  0.8964593324787937  0.6200917934970887  0.07005182765119367  1.0000
  C   C25       1.0  0.9403993305576214  0.6028855184986817  0.9536297729558653  1.0000
  C   C26       1.0  0.026892515387162405  0.5671916304275914  0.9553169283725365  1.0000
  C   C27       1.0  0.06955381721996434  0.549389227682048  0.07517727857989852  1.0000
  C   C28       1.0  0.8052097883418735  0.658172717430102  0.06885774423175328  1.0000
  O   O2        1.0  0.774225420483961  0.7200535946091655  0.16271303926695133  1.0000
  N   N5        1.0  0.7508156916183005  0.6246786560975337  0.9639937216303647  1.0000
  H   H15       1.0  0.19043308399205683  0.5004618991699221  0.4064144160267167  1.0000
  H   H16       1.0  0.9070834764075113  0.6167295916045592  0.2789508413500954  1.0000
  H   H17       1.0  0.9079530561036514  0.6198763184351801  0.8611787309903485  1.0000
  H   H18       1.0  0.1361860825756872  0.5218472669784353  0.07717533389176578  1.0000
  H   H19       1.0  0.1906976349959013  0.5019970548535652  0.7510773249564804  1.0000
  H   H20       1.0  0.6877528877544647  0.6584152062177956  0.9627926494491668  1.0000
  H   H21       1.0  0.7705590136652688  0.558667314514498  0.8922169908930511  1.0000
  Zn  Zn1       1.0  0.9340887764322997  0.5683720384650746  0.573598827437241  1.0000
  Zn  Zn2       1.0  0.11975634597264076  0.5662966602906667  0.5741512682913812  1.0000
  C   C29       1.0  0.0268691487982171  0.5615010520845332  0.8111026325434658  1.0000
  C   C30       1.0  0.026978011966469748  0.5731694434333772  0.3366476008423307  1.0000
  C   C31       1.0  0.028498635195029803  0.8307075136639284  0.5692975605528203  1.0000
  C   C32       1.0  0.025348451841388665  0.30396125002398705  0.5784527379600655  1.0000
  O   O3        1.0  0.09744365484009734  0.5742857825831416  0.3852567127010466  1.0000
  O   O4        1.0  0.09732088867469074  0.5588084612076578  0.7629124341215819  1.0000
  O   O5        1.0  0.09863576959424436  0.7761960936242959  0.5676531282585167  1.0000
  O   O6        1.0  0.09612871063520906  0.35689816122677387  0.5805159210058151  1.0000
  O   O7        1.0  0.9577163484105118  0.7777705382387643  0.5672341745274574  1.0000
  O   O8        1.0  0.9564014778600072  0.5603846383619187  0.7624934150680827  1.0000
  O   O9        1.0  0.9565242439206701  0.5758619100713096  0.3848361318353324  1.0000
  O   O10       1.0  0.9552092996418976  0.3584742783644683  0.5800954375030478  1.0000
