data_image0
_chemical_formula_structural       NC9NC3OH6C7OC4NC3H7C6NCOC6H11Zn2C4O8
_chemical_formula_sum              "N4 C43 O11 H24 Zn2"
_cell_length_a       15.78231758774541
_cell_length_b       10.299371701877257
_cell_length_c       10.299662537453274
_cell_angle_alpha    85.55951811676591
_cell_angle_beta     90.07028812251602
_cell_angle_gamma    89.64160960478581

_space_group_name_H-M_alt    "P 1"
_space_group_IT_number       1

loop_
  _space_group_symop_operation_xyz
  'x, y, z'

loop_
  _atom_site_type_symbol
  _atom_site_label
  _atom_site_symmetry_multiplicity
  _atom_site_fract_x
  _atom_site_fract_y
  _atom_site_fract_z
  _atom_site_occupancy
  N   N1        1.0  0.7982412238078085  0.4137999998032347  0.5703847878719331  1.0000
  C   C1        1.0  0.7496969367359494  0.33172742740570826  0.5944362459871356  1.0000
  C   C2        1.0  0.6894274045090788  0.22985541538992527  0.6242903021133497  1.0000
  C   C3        1.0  0.7090709054925228  0.101887781026583  0.661712396519483  1.0000
  C   C4        1.0  0.6323310643018483  0.03986962864743003  0.6799231607399069  1.0000
  C   C5        1.0  0.5705645314203392  0.13458030869441062  0.652267808884144  1.0000
  C   C6        1.0  0.4774709256880667  0.11706971780269135  0.6574726284924084  1.0000
  C   C7        1.0  0.42374185545670295  0.22443620537598896  0.6259567862651523  1.0000
  C   C8        1.0  0.33553321675704334  0.21007793802356847  0.6302317743768268  1.0000
  C   C9        1.0  0.2811081168258209  0.32056831227484106  0.5977907158074728  1.0000
  N   N2        1.0  0.23736322931176243  0.4093883184484412  0.5717110026211432  1.0000
  C   C10       1.0  0.3003723368976941  0.08819338239767947  0.6660715435497727  1.0000
  C   C11       1.0  0.35317050714173326  0.9810488704207512  0.6975265848259116  1.0000
  C   C12       1.0  0.4411934246389501  0.9950126936042611  0.6933677655793647  1.0000
  O   O1        1.0  0.607039702553916  0.2468248114587632  0.6193951614615538  1.0000
  H   H1        1.0  0.7715248832614877  0.05873252260253013  0.6742816187391041  1.0000
  H   H2        1.0  0.6235837068931925  0.9378955573878139  0.7097590708641657  1.0000
  H   H3        1.0  0.4503614928962085  0.31928400329155027  0.5980623692646776  1.0000
  H   H4        1.0  0.2322542229327289  0.07603267687730564  0.6696901137092497  1.0000
  H   H5        1.0  0.3258206508042228  0.8868495011200757  0.7252307247176114  1.0000
  H   H6        1.0  0.48026718415420067  0.9101466916157114  0.7182906234745965  1.0000
  C   C13       1.0  0.017761969351143263  0.03022418502540503  0.5709207708733779  1.0000
  C   C14       1.0  0.021899856646064406  0.0395749506487053  0.4342687534734  1.0000
  C   C15       1.0  0.023024791145942015  0.9271319946350407  0.36527995987914763  1.0000
  C   C16       1.0  0.021910289256295002  0.8043064106047296  0.43458617997359683  1.0000
  C   C17       1.0  0.017850567934650785  0.7929540530567958  0.5711862497672009  1.0000
  C   C18       1.0  0.015576969787846498  0.9065168504660215  0.6385466745095842  1.0000
  C   C19       1.0  0.02828397518120251  0.9368530382054089  0.22104625633648922  1.0000
  O   O2        1.0  0.06907339669989304  0.8507171071698605  0.16622372900754034  1.0000
  C   C20       1.0  0.9872558376158596  0.04420934227934947  0.13901038944832544  1.0000
  C   C21       1.0  0.023563357544478913  0.08853402719393166  0.019150103866391724  1.0000
  C   C22       1.0  0.9847694308012541  0.1888566500935407  0.9402423795750582  1.0000
  C   C23       1.0  0.022721079333323443  0.23434969125524321  0.8182009163709469  1.0000
  N   N3        1.0  0.05323251308586016  0.27091647722359147  0.7200972891319026  1.0000
  C   C24       1.0  0.909035545510747  0.2447808225156083  0.9801853845643478  1.0000
  C   C25       1.0  0.8720130214549194  0.20025334891558666  0.09830396575178768  1.0000
  C   C26       1.0  0.9105636683315178  0.10023064886926947  0.1771995577308012  1.0000
  H   H7        1.0  0.02520176805435081  0.13448541887814902  0.38139224789598375  1.0000
  H   H8        1.0  0.023405499792147344  0.7174738207935208  0.3815785819974083  1.0000
  H   H9        1.0  0.012387424584058504  0.8985041970192694  0.7438956411756827  1.0000
  H   H10       1.0  0.08232881670619036  0.04586437490622796  0.9877507793057908  1.0000
  H   H11       1.0  0.8784996746437805  0.32232650961340376  0.9198538407240524  1.0000
  H   H12       1.0  0.8131030600140753  0.24294107228577655  0.12854985091839646  1.0000
  H   H13       1.0  0.8799381639480348  0.06579450564099963  0.2672631486809541  1.0000
  C   C27       1.0  0.017864610930972136  0.41172907007601145  0.18967775537591214  1.0000
  C   C28       1.0  0.1043631427507456  0.4432346883392082  0.18613626241447556  1.0000
  C   C29       1.0  0.1481861520071902  0.45721952161962015  0.06766896376031917  1.0000
  C   C30       1.0  0.10421484179823909  0.4429261043911452  0.9509924101407466  1.0000
  C   C31       1.0  0.017747948992000044  0.4114491726174778  0.9524292616376693  1.0000
  C   C32       1.0  0.9751333043353102  0.39558310524097123  0.07234192317109424  1.0000
  N   N4        1.0  0.23642330314045268  0.4914186870406958  0.0674640731874887  1.0000
  C   C33       1.0  0.2963868201592938  0.45096614581365335  0.9734183095880571  1.0000
  O   O3        1.0  0.2809212239523542  0.3525631229361496  0.9117858141117613  1.0000
  C   C34       1.0  0.3777464171852345  0.5204776053554829  0.9513380427182292  1.0000
  C   C35       1.0  0.3879834781518887  0.6484452553439952  0.9877673049494999  1.0000
  C   C36       1.0  0.46485904390744937  0.7132285845401453  0.9658316804215079  1.0000
  C   C37       1.0  0.5321137521780117  0.6515257710758571  0.9070387426959265  1.0000
  C   C38       1.0  0.5225644093198492  0.5249975979139406  0.8696060924626228  1.0000
  C   C39       1.0  0.44583325965096887  0.4597557848115183  0.8912129147553004  1.0000
  H   H14       1.0  0.8545043108518092  0.35350704166259  0.40352843730221355  1.0000
  H   H15       1.0  0.13831272135275208  0.4561128092262079  0.2756637658794161  1.0000
  H   H16       1.0  0.13703497359371242  0.458560328399334  0.8589838807262464  1.0000
  H   H17       1.0  0.9084553621175835  0.3712788458286693  0.07420790509598274  1.0000
  H   H18       1.0  0.9843058799630817  0.40105809115122315  0.6254009593526546  1.0000
  H   H19       1.0  0.25955323052669854  0.5383902279932375  0.14647293283545773  1.0000
  H   H20       1.0  0.3365052861160862  0.6994977600828562  0.03140325964607715  1.0000
  H   H21       1.0  0.4721594794729682  0.8116349867999451  0.9940038264727767  1.0000
  H   H22       1.0  0.591531698416425  0.7019070614366821  0.8901184020059622  1.0000
  H   H23       1.0  0.5746693028906777  0.4773561143881491  0.8237762380340108  1.0000
  H   H24       1.0  0.43998476385047813  0.3615574170760514  0.8616701937401744  1.0000
  Zn  Zn1       1.0  0.9249623438444148  0.4125234121260384  0.5707749971942537  1.0000
  Zn  Zn2       1.0  0.11064207792718722  0.41065430273125125  0.5713314061190508  1.0000
  C   C40       1.0  0.017767487624503978  0.40632841793555663  0.8082510942546431  1.0000
  C   C41       1.0  0.017838961934858004  0.4168509150883108  0.3338554431737229  1.0000
  C   C42       1.0  0.017830249159957557  0.648783830938173  0.5659607945140951  1.0000
  C   C43       1.0  0.017776136848056897  0.17439394239132966  0.576145811421184  1.0000
  O   O4        1.0  0.08829484464568615  0.4178548700321172  0.38245394459324245  1.0000
  O   O5        1.0  0.08823822668929976  0.4039048726214114  0.7600745201408632  1.0000
  O   O6        1.0  0.08828795732127022  0.5996906939546416  0.5644233864798194  1.0000
  O   O7        1.0  0.08824505066977628  0.22206905866266546  0.5781049806912402  1.0000
  O   O8        1.0  0.9473593077384469  0.6011086568338753  0.5640014224253581  1.0000
  O   O9        1.0  0.9473095772944441  0.4053243958342616  0.7596524873827832  1.0000
  O   O10       1.0  0.9473661955407987  0.4192743485612609  0.38203035039087896  1.0000
  O   O11       1.0  0.9473164015454488  0.22348852786728243  0.5776814838552171  1.0000
