data_image0
_chemical_formula_structural       NC5NC3F3CH3C9H10C7OH5Zn2C4O8
_chemical_formula_sum              "N2 C29 F3 H18 O9 Zn2"
_cell_length_a       13.85151926108384
_cell_length_b       10.297183801781406
_cell_length_c       9.274074313596557
_cell_angle_alpha    86.09469829957582
_cell_angle_beta     90.23361225849852
_cell_angle_gamma    89.99762972311773

_space_group_name_H-M_alt    "P 1"
_space_group_IT_number       1

loop_
  _space_group_symop_operation_xyz
  'x, y, z'

loop_
  _atom_site_type_symbol
  _atom_site_label
  _atom_site_symmetry_multiplicity
  _atom_site_fract_x
  _atom_site_fract_y
  _atom_site_fract_z
  _atom_site_occupancy
  N   N1        1.0  0.9046968406393147  0.40762365926083133  0.40949556008573  1.0000
  C   C1        1.0  0.8325380640542402  0.39999680606130344  0.47195338676400805  1.0000
  C   C2        1.0  0.7427668814517604  0.39050795803956784  0.5496598581655815  1.0000
  C   C3        1.0  0.6550344442234151  0.39814686239207586  0.47414658628415207  1.0000
  C   C4        1.0  0.5677148918935256  0.3905079460210708  0.5496598381172382  1.0000
  C   C5        1.0  0.47751881219120745  0.3999968214398595  0.4719534808046155  1.0000
  N   N2        1.0  0.40501865531493625  0.40762362606367814  0.40949566553406513  1.0000
  C   C6        1.0  0.568119023500711  0.3743327365050386  0.7008628265849586  1.0000
  C   C7        1.0  0.6558640717430602  0.3638317002793084  0.7776394007512213  1.0000
  C   C8        1.0  0.6563094535683207  0.3512410354888993  0.9406338236494478  1.0000
  F   F1        1.0  0.7373868531081847  0.2843061102196595  0.9922590748214571  1.0000
  F   F2        1.0  0.5755180387193405  0.2843060835341038  0.9922591741115953  1.0000
  F   F3        1.0  0.6564466539396148  0.47403573046851655  0.9922806515074285  1.0000
  C   C9        1.0  0.7431893503979273  0.37433265087682654  0.7008628462412321  1.0000
  H   H1        1.0  0.654714462226082  0.410814587177456  0.35707979676254165  1.0000
  H   H2        1.0  0.5001532631527383  0.37017806066289327  0.758505339940908  1.0000
  H   H3        1.0  0.8114700165622944  0.37017798742861935  0.7585052989453374  1.0000
  C   C10       1.0  0.1548662987665197  0.02614990091777014  0.40969980575548237  1.0000
  C   C11       1.0  0.15163772626283611  0.034669171521485964  0.2580350964822602  1.0000
  C   C12       1.0  0.14998341085103234  0.9224173555892683  0.1803328307761567  1.0000
  C   C13       1.0  0.15162481103151443  0.7994928822865134  0.2574472665266874  1.0000
  C   C14       1.0  0.154858474119938  0.7890875269004037  0.4093038094944548  1.0000
  C   C15       1.0  0.1564571928440997  0.9028834016325968  0.4844387943029207  1.0000
  C   C16       1.0  0.14649121460462475  0.9410637431145914  0.016296738422883154  1.0000
  C   C17       1.0  0.08974274098072126  0.8416375844397492  0.9360652155306366  1.0000
  C   C18       1.0  0.19971602665636712  0.8419053215297522  0.9314866921842216  1.0000
  H   H4        1.0  0.15611953822758556  0.3504056066856438  0.468141082910514  1.0000
  H   H5        1.0  0.1503915218805003  0.1293804453381706  0.19948415112205067  1.0000
  H   H6        1.0  0.15041087136994238  0.7113899612605209  0.20052226959013342  1.0000
  H   H7        1.0  0.15894762044780006  0.8955831625977625  0.601451302357363  1.0000
  H   H8        1.0  0.16095312884706028  0.562218290552974  0.6961180598184886  1.0000
  H   H9        1.0  0.1453696476649669  0.04131322777576506  0.9635726546776834  1.0000
  H   H10       1.0  0.05770678526068009  0.7585798920357656  0.0016554318910333482  1.0000
  H   H11       1.0  0.05540506182617146  0.8816091249285851  0.8340931597663701  1.0000
  H   H12       1.0  0.23448293845179513  0.7590110713952923  0.9942964538730222  1.0000
  H   H13       1.0  0.22965288963610964  0.8820309634819197  0.8268373612060329  1.0000
  C   C19       1.0  0.15370648603346027  0.403877289599327  0.9862625869291235  1.0000
  C   C20       1.0  0.06953075814934029  0.44222881750317944  0.05613152521322573  1.0000
  C   C21       1.0  0.9901089201042975  0.49102023812966417  0.9769239610599786  1.0000
  C   C22       1.0  0.9930049845855461  0.50275791633199  0.8256378678232159  1.0000
  C   C23       1.0  0.07587722976168769  0.46283805446901277  0.754629857422993  1.0000
  C   C24       1.0  0.1560182372506138  0.41136009481490077  0.8327411095541901  1.0000
  C   C25       1.0  0.9099608409979292  0.5551216885349366  0.7402199736812434  1.0000
  O   O1        1.0  0.8343080596125212  0.5913162215514438  0.8009074567837203  1.0000
  H   H14       1.0  0.3895928225177687  0.37078082310501204  0.09306836201083257  1.0000
  H   H15       1.0  0.9267649695894352  0.5207582356429399  0.03431017229513533  1.0000
  H   H16       1.0  0.07699584212166544  0.46913339499823725  0.6374699272643438  1.0000
  H   H17       1.0  0.3145780803454322  0.3843604433694334  0.5552893164107605  1.0000
  H   H18       1.0  0.9133889031067153  0.5630067276475903  0.6233463643583997  1.0000
  Zn  Zn1       1.0  0.04907893171006708  0.40762025516046113  0.40950389968276424  1.0000
  Zn  Zn2       1.0  0.2606365789912671  0.4076165383403789  0.4094990828620506  1.0000
  C   C26       1.0  0.15557919142243093  0.40477061502396006  0.6727411872008584  1.0000
  C   C27       1.0  0.15413862985132476  0.41046781875706095  0.14626193590160996  1.0000
  C   C28       1.0  0.15483928490310217  0.6448253013031535  0.40363533376074523  1.0000
  C   C29       1.0  0.15487846440671188  0.17041157242668725  0.41536786699369843  1.0000
  O   O2        1.0  0.234568685923801  0.41267258273408886  0.1999573540118651  1.0000
  O   O3        1.0  0.2357164934026239  0.4025620464069135  0.6190416988533318  1.0000
  O   O4        1.0  0.23511793134320969  0.5964092547501594  0.4017368175554919  1.0000
  O   O5        1.0  0.23516717549769228  0.21882538272959381  0.41726212724113726  1.0000
  O   O6        1.0  0.07454826300937833  0.5964114107738616  0.4017408552977398  1.0000
  O   O7        1.0  0.07514682483847102  0.40256576248441184  0.6190456589376665  1.0000
  O   O8        1.0  0.07399901269186886  0.41267623822504085  0.1999595812935307  1.0000
  O   O9        1.0  0.07459750255702002  0.21882902988441064  0.4172644625854332  1.0000
