data_image0
_chemical_formula_structural       NC9NC3OH6C10ClC2H7C10IC2H9Zn2C4O8
_chemical_formula_sum              "N2 C40 O9 H22 Cl1 I1 Zn2"
_cell_length_a       15.78231758774541
_cell_length_b       10.299769246903262
_cell_length_c       10.299773630820606
_cell_angle_alpha    85.54463108608702
_cell_angle_beta     90.08888169708479
_cell_angle_gamma    89.64978214069643

_space_group_name_H-M_alt    "P 1"
_space_group_IT_number       1

loop_
  _space_group_symop_operation_xyz
  'x, y, z'

loop_
  _atom_site_type_symbol
  _atom_site_label
  _atom_site_symmetry_multiplicity
  _atom_site_fract_x
  _atom_site_fract_y
  _atom_site_fract_z
  _atom_site_occupancy
  N   N1        1.0  0.7980697916574645  0.41369825820227724  0.5699548893262054  1.0000
  C   C1        1.0  0.7495229875914662  0.3316282570763079  0.5940321718457506  1.0000
  C   C2        1.0  0.6892503312371682  0.2297594366533575  0.6239182823298213  1.0000
  C   C3        1.0  0.708889891016124  0.10179580695121702  0.6613806433355554  1.0000
  C   C4        1.0  0.6321481555327677  0.03977959960642008  0.6796109212367754  1.0000
  C   C5        1.0  0.5703845483253778  0.13448731808178827  0.6519257668854823  1.0000
  C   C6        1.0  0.47729042109136216  0.11697727993235252  0.6571360951784198  1.0000
  C   C7        1.0  0.4235646325702562  0.22434040085403884  0.6255864704991034  1.0000
  C   C8        1.0  0.3353555677663239  0.20998258714225512  0.6298659754954816  1.0000
  C   C9        1.0  0.2809338432841105  0.32046949632078436  0.5973901516766302  1.0000
  N   N2        1.0  0.23719166892321833  0.4092867169500938  0.571282491733851  1.0000
  C   C10       1.0  0.3001909756378712  0.08810185693438588  0.6657440942559335  1.0000
  C   C11       1.0  0.35298587187812325  0.9809607048951747  0.6972328480761787  1.0000
  C   C12       1.0  0.44100920350480916  0.9949240868283082  0.6930696360495867  1.0000
  O   O1        1.0  0.6068631661482342  0.2467283054837086  0.6190178010562215  1.0000
  H   H1        1.0  0.7713425289136585  0.05864189616505612  0.6739634456403276  1.0000
  H   H2        1.0  0.6233976607006146  0.9378087204180213  0.7094789185401487  1.0000
  H   H3        1.0  0.450187157814637  0.3191852216488882  0.5976622107886205  1.0000
  H   H4        1.0  0.2320725003357552  0.075941535503943  0.6693664900130518  1.0000
  H   H5        1.0  0.3256331475678703  0.8867642923860394  0.724966626651443  1.0000
  H   H6        1.0  0.48008037152353916  0.9100607466139021  0.7180191965333198  1.0000
  C   C13       1.0  0.017555106931496076  0.030128130590247222  0.5706132139016438  1.0000
  C   C14       1.0  0.025372330662894335  0.03963841896686393  0.4344283320837732  1.0000
  C   C15       1.0  0.02941436879425939  0.9273171152557113  0.3654332443479771  1.0000
  C   C16       1.0  0.025533174667741614  0.8043486389814236  0.43445076177917064  1.0000
  C   C17       1.0  0.0177144658279975  0.7928467595894927  0.5706353643221229  1.0000
  C   C18       1.0  0.01376943964024656  0.9062932802659062  0.6379539623588986  1.0000
  C   C19       1.0  0.03768580529871232  0.9384311910205259  0.2213611148424475  1.0000
  C   C20       1.0  0.09261883904003593  0.8549561834025696  0.15903921178502722  1.0000
  C   C21       1.0  0.10032871944183741  0.8656136308169887  0.023424821347151507  1.0000
  C   C22       1.0  0.0533518316484389  0.9594810496319035  0.9484790761660551  1.0000
  Cl  Cl1       1.0  0.06311834159509577  0.9726041500828654  0.7783490778659594  1.0000
  C   C23       1.0  0.9985801343921022  0.0428750434221683  0.009310549647266074  1.0000
  C   C24       1.0  0.9907199726865485  0.03261170801285074  0.14490419483550945  1.0000
  H   H7        1.0  0.02950320147790907  0.13461491009074367  0.38185212037477134  1.0000
  H   H8        1.0  0.027456662177363096  0.7175078936394959  0.38156819389136487  1.0000
  H   H9        1.0  0.007738523121712856  0.8981884513805315  0.7430142586922588  1.0000
  H   H10       1.0  0.13040535462171932  0.782621966369491  0.21525833662686833  1.0000
  H   H11       1.0  0.14300514565953037  0.8010476826164651  0.9767660271512165  1.0000
  H   H12       1.0  0.9618932532021471  0.11548857159829275  0.951642326167014  1.0000
  H   H13       1.0  0.9471265039180139  0.0971432416561806  0.18983498763114182  1.0000
  C   C25       1.0  0.017612446875785222  0.41160581761194265  0.18925412629938654  1.0000
  C   C26       1.0  0.10304818541928212  0.4489390235082984  0.18556113206265445  1.0000
  C   C27       1.0  0.14636164503102322  0.46773568489406353  0.06656069248353114  1.0000
  C   C28       1.0  0.10309325005396403  0.44869978298970953  0.950293419164852  1.0000
  C   C29       1.0  0.017657086778746653  0.411369133951825  0.9519944579708093  1.0000
  C   C30       1.0  0.9753951964942897  0.39303052494690477  0.07195766330013798  1.0000
  C   C31       1.0  0.23674456932059906  0.5072297342517027  0.06370741850549644  1.0000
  C   C32       1.0  0.29454875538899805  0.45063551045133643  0.9804328645528342  1.0000
  C   C33       1.0  0.3795944486099958  0.4879343410329275  0.9779485931427105  1.0000
  C   C34       1.0  0.4079251425967585  0.5820311303950405  0.05830168324539464  1.0000
  I   I1        1.0  0.5362504511943751  0.6381063841334511  0.05424883696863114  1.0000
  C   C35       1.0  0.35110187791668035  0.6389175387682895  0.14134404978759132  1.0000
  C   C36       1.0  0.26600865940400964  0.6018703463281947  0.14423253927361057  1.0000
  H   H14       1.0  0.9850466326381405  0.3974371901704267  0.518110181653392  1.0000
  H   H15       1.0  0.13643748518989196  0.4617554290050794  0.2755755779903186  1.0000
  H   H16       1.0  0.13586428400175365  0.4647926860102471  0.8581905845008215  1.0000
  H   H17       1.0  0.909485234165103  0.3642306991526223  0.07403823265761877  1.0000
  H   H18       1.0  0.9851125304540166  0.3970887326265348  0.6251934457287187  1.0000
  H   H19       1.0  0.27422433763577136  0.3763801719032838  0.9185311033379233  1.0000
  H   H20       1.0  0.42347151930358357  0.4434081468864876  0.9137715187407589  1.0000
  H   H21       1.0  0.3727686230281386  0.7120847361737035  0.20345119374879506  1.0000
  H   H22       1.0  0.22288988418492428  0.6484028703294797  0.2081378890664998  1.0000
  Zn  Zn1       1.0  0.9247908759506357  0.41242171143080714  0.5703455000937736  1.0000
  Zn  Zn2       1.0  0.110470554544708  0.41055266108405397  0.5709024970123271  1.0000
  C   C37       1.0  0.017645684639253645  0.40624024562356253  0.8078200744742531  1.0000
  C   C38       1.0  0.017617773822167653  0.4167357450416009  0.33342805622878546  1.0000
  C   C39       1.0  0.017679655632308885  0.6486783735588262  0.5654560081743789  1.0000
  C   C40       1.0  0.01758373914773026  0.17429605743885102  0.5757921915320607  1.0000
  O   O2        1.0  0.08808403075916543  0.41774243501037295  0.3820255214211439  1.0000
  O   O3        1.0  0.08810600719330593  0.4038140100938174  0.7596449831792633  1.0000
  O   O4        1.0  0.08813248938410506  0.5995858735926751  0.563934282065913  1.0000
  O   O5        1.0  0.08805748520471018  0.22197058146962603  0.5777361249697075  1.0000
  O   O6        1.0  0.9472038819272717  0.6010037916844659  0.5635118719394863  1.0000
  O   O7        1.0  0.9471774000544928  0.40523348849232566  0.7592225038525297  1.0000
  O   O8        1.0  0.94715542357585  0.4191618686374831  0.381601480687384  1.0000
  O   O9        1.0  0.9471288780216891  0.22339000577785642  0.5773121816038278  1.0000
