data_image0
_chemical_formula_structural       NC9NC3SH6C7ONH7C9H10Zn2C4O8
_chemical_formula_sum              "N3 C32 S1 H23 O9 Zn2"
_cell_length_a       16.77567553997237
_cell_length_b       10.297852080636378
_cell_length_c       9.272679976505533
_cell_angle_alpha    86.02025868142809
_cell_angle_beta     90.7858477527611
_cell_angle_gamma    90.87229915396684

_space_group_name_H-M_alt    "P 1"
_space_group_IT_number       1

loop_
  _space_group_symop_operation_xyz
  'x, y, z'

loop_
  _atom_site_type_symbol
  _atom_site_label
  _atom_site_symmetry_multiplicity
  _atom_site_fract_x
  _atom_site_fract_y
  _atom_site_fract_z
  _atom_site_occupancy
  N   N1        1.0  0.7443402803547001  0.428470681685873  0.4175121619189765  1.0000
  C   C1        1.0  0.689758324167797  0.4781495461223859  0.4637023715399269  1.0000
  C   C2        1.0  0.6220213042988548  0.539797728772069  0.5210208877233282  1.0000
  C   C3        1.0  0.6245427347235699  0.6286849766660156  0.626560765215429  1.0000
  C   C4        1.0  0.5490307994649901  0.672425286141453  0.6615508154501216  1.0000
  C   C5        1.0  0.48673764971239547  0.6177889864688146  0.5831484208141089  1.0000
  C   C6        1.0  0.4002878619298156  0.6439478019232567  0.5951988786358149  1.0000
  C   C7        1.0  0.3432392166900848  0.5638656631291712  0.5304785712037718  1.0000
  C   C8        1.0  0.2616350392645181  0.5880049579614697  0.5413557060011316  1.0000
  C   C9        1.0  0.2039135265792627  0.5052422590225627  0.47508594119415043  1.0000
  N   N2        1.0  0.1575224889201665  0.438712911419394  0.4218148416034031  1.0000
  C   C10       1.0  0.23624893094204996  0.6925386658154473  0.6167743219273325  1.0000
  C   C11       1.0  0.2922039282772356  0.77277584422564  0.6809821927914816  1.0000
  C   C12       1.0  0.3736516307447265  0.7490022891507127  0.670432164898973  1.0000
  S   S1        1.0  0.5269128174915398  0.5148509836771115  0.47088310143852347  1.0000
  H   H1        1.0  0.679134002913508  0.6609283548459777  0.6773767441077918  1.0000
  H   H2        1.0  0.5410647000545253  0.7409428424316438  0.743140878579468  1.0000
  H   H3        1.0  0.36182970947350773  0.4821209071897772  0.47223922797539214  1.0000
  H   H4        1.0  0.1732952351542925  0.7120677391388412  0.6257563330860272  1.0000
  H   H5        1.0  0.2724315572933493  0.8539063442147636  0.7388689891532454  1.0000
  H   H6        1.0  0.4152693756894644  0.8140232248088527  0.720132200574708  1.0000
  C   C13       1.0  0.9510202224270622  0.05215692754157476  0.419673048982502  1.0000
  C   C14       1.0  0.9395341822672754  0.06031893275164002  0.2689463319413443  1.0000
  C   C15       1.0  0.9330063467744757  0.9473480839221647  0.19263120376617593  1.0000
  C   C16       1.0  0.9393324365797994  0.8250613623348394  0.26889449582552327  1.0000
  C   C17       1.0  0.9508501956195222  0.8150169749679603  0.41966648494968606  1.0000
  C   C18       1.0  0.9564301900682256  0.9290706512307301  0.4941028079193701  1.0000
  C   C19       1.0  0.9210724602098495  0.9585742090254005  0.033416314225810144  1.0000
  O   O1        1.0  0.942098617087582  0.061680345235893615  0.9618438976324634  1.0000
  N   N3        1.0  0.8851691526073512  0.8553357597111958  0.9586092293580792  1.0000
  H   H7        1.0  0.9730172829301221  0.24401078798609915  0.7044731428816509  1.0000
  H   H8        1.0  0.9349447327245854  0.15491125360177893  0.2107852597343216  1.0000
  H   H9        1.0  0.9368565680255884  0.7373813640809036  0.21104709040583303  1.0000
  H   H10       1.0  0.9652806351831882  0.9220264939444317  0.6102697408473285  1.0000
  H   H11       1.0  0.9738949675785087  0.588806696990694  0.7043461193496332  1.0000
  H   H12       1.0  0.8807224686696046  0.8634811958185132  0.8459215735071601  1.0000
  H   H13       1.0  0.858153445564527  0.7749311767252971  0.01372367077910108  1.0000
  C   C20       1.0  0.9493194931933711  0.4304796906876418  0.9962903148147796  1.0000
  C   C21       1.0  0.0035172036566504233  0.3514758111808743  0.07712142498007646  1.0000
  C   C22       1.0  0.06163863424503835  0.2830949841247923  0.009126098125576743  1.0000
  C   C23       1.0  0.06752773976406412  0.2914705611325812  0.8583251231093469  1.0000
  C   C24       1.0  0.01237346564539088  0.3686878541113674  0.7760997859260894  1.0000
  C   C25       1.0  0.9525509433434125  0.4366942310439162  0.8430493226489015  1.0000
  C   C26       1.0  0.13308561185321532  0.21485002490835714  0.7928600567533368  1.0000
  C   C27       1.0  0.11411533904330096  0.1549357995007401  0.6505630068030492  1.0000
  C   C28       1.0  0.1701652619024716  0.27263041945753974  0.6533274980611572  1.0000
  H   H14       1.0  0.8292587151407992  0.5153259283317562  0.26799039900615895  1.0000
  H   H15       1.0  0.0022565570976860144  0.34489248976220815  0.19418293960360455  1.0000
  H   H16       1.0  0.10292418429819451  0.2240905979403578  0.07518880249206215  1.0000
  H   H17       1.0  0.014155572775372827  0.374347265955965  0.6593394057423736  1.0000
  H   H18       1.0  0.771524768025284  0.5544035280156232  0.7264607137077852  1.0000
  H   H19       1.0  0.174766760316015  0.15745135295076704  0.8654807412840871  1.0000
  H   H20       1.0  0.05489187974199462  0.17563363364483428  0.6002645386055727  1.0000
  H   H21       1.0  0.14510276275513245  0.06219324413754368  0.6365922768612102  1.0000
  H   H22       1.0  0.14502739630551575  0.36476274019191424  0.6045920102126505  1.0000
  H   H23       1.0  0.2339207257988627  0.24866693507242132  0.6409687602124516  1.0000
  Zn  Zn1       1.0  0.8635757759734983  0.4314229611634844  0.4187621569509769  1.0000
  Zn  Zn2       1.0  0.038287035882040854  0.43575012264941704  0.4205766866167482  1.0000
  C   C29       1.0  0.9519395126120789  0.4303449148370766  0.6829937223917986  1.0000
  C   C30       1.0  0.9499252072598022  0.43682985617044445  0.15634528248435275  1.0000
  C   C31       1.0  0.9508563293593202  0.6707779202882596  0.41392247055355225  1.0000
  C   C32       1.0  0.9510083315369208  0.1963952892338154  0.42541661058251834  1.0000
  O   O2        1.0  0.016430504316452984  0.44059749822523253  0.21074979635448  1.0000
  O   O3        1.0  0.01803601791713971  0.4298605052881297  0.6299659795330999  1.0000
  O   O4        1.0  0.01716044568007669  0.6240131867459828  0.4126890306555855  1.0000
  O   O5        1.0  0.017306016521783762  0.24644482378926955  0.4280266365115424  1.0000
  O   O6        1.0  0.8845567357133479  0.6207282585483425  0.4113122064293895  1.0000
  O   O7        1.0  0.8854323073056436  0.4265771371006457  0.6285890784201914  1.0000
  O   O8        1.0  0.8838267871529435  0.43731407205350586  0.2093711618421661  1.0000
  O   O9        1.0  0.8847022997695989  0.24316138912036275  0.4266481100928867  1.0000
