data_image0
_chemical_formula_structural       NC9NC3SH6C8NH6C6OCH6Zn2C4O8
_chemical_formula_sum              "N3 C31 S1 H18 O9 Zn2"
_cell_length_a       16.77567553997237
_cell_length_b       9.274263428431858
_cell_length_c       9.27389158865715
_cell_angle_alpha    86.03948257069723
_cell_angle_beta     90.06962488754225
_cell_angle_gamma    91.51050711931723

_space_group_name_H-M_alt    "P 1"
_space_group_IT_number       1

loop_
  _space_group_symop_operation_xyz
  'x, y, z'

loop_
  _atom_site_type_symbol
  _atom_site_label
  _atom_site_symmetry_multiplicity
  _atom_site_fract_x
  _atom_site_fract_y
  _atom_site_fract_z
  _atom_site_occupancy
  N   N1        1.0  0.765027086981439  0.5853191099620585  0.4169398079795986  1.0000
  C   C1        1.0  0.7104663222432064  0.6405325752882787  0.46308190325846454  1.0000
  C   C2        1.0  0.642755602848018  0.7090488309453737  0.5203407128607616  1.0000
  C   C3        1.0  0.6451570237421294  0.8078568341438881  0.6257881221878867  1.0000
  C   C4        1.0  0.5697029176251237  0.8564656690466192  0.6607373921197506  1.0000
  C   C5        1.0  0.5075768648352064  0.795720717769498  0.5823956054298092  1.0000
  C   C6        1.0  0.4212228828466117  0.8247841513521355  0.5944241480005585  1.0000
  C   C7        1.0  0.3640729039867112  0.7357879321911927  0.529778686908239  1.0000
  C   C8        1.0  0.2825588121280074  0.7626074104439222  0.5406356660808858  1.0000
  C   C9        1.0  0.2247283185659638  0.6706327395917869  0.4744430810013578  1.0000
  N   N2        1.0  0.1782496738817355  0.5966982871493847  0.42123402276772137  1.0000
  C   C10       1.0  0.2573674925161183  0.8787698020205083  0.6159591083501125  1.0000
  C   C11       1.0  0.3134284187175941  0.9679378158977203  0.6800921656937877  1.0000
  C   C12       1.0  0.3947862809534926  0.9415248133692776  0.66956194281299  1.0000
  S   S1        1.0  0.5478223251559753  0.6813015951258314  0.47023459605171375  1.0000
  H   H1        1.0  0.699618314452592  0.8437087906874985  0.6765670663761465  1.0000
  H   H2        1.0  0.5616426822128328  0.9326306940417993  0.74225611160914  1.0000
  H   H3        1.0  0.3825059853458322  0.644950194043882  0.4716135633836724  1.0000
  H   H4        1.0  0.1944854203296141  0.900467329972595  0.6249247625028973  1.0000
  H   H5        1.0  0.2938116894281577  0.05809303760714847  0.7379052763516651  1.0000
  H   H6        1.0  0.43650594821522715  0.013781096231407554  0.7192020023729171  1.0000
  C   C13       1.0  0.9691180960747693  0.16735862385814504  0.41936704983379336  1.0000
  C   C14       1.0  0.9592129511741369  0.24925774436118767  0.2875345680432242  1.0000
  C   C15       1.0  0.9571246797538645  0.18311182513818536  0.15697576464689345  1.0000
  C   C16       1.0  0.9655380545521475  0.03354331783735453  0.15502683528273642  1.0000
  C   C17       1.0  0.9733060267854873  0.9500727742919884  0.28595354944241813  1.0000
  C   C18       1.0  0.9741661957544736  0.014648064796747068  0.4188193874480848  1.0000
  C   C19       1.0  0.9620966761759712  0.9621925881629712  0.014356033693790012  1.0000
  C   C20       1.0  0.8794650622221175  0.9206918916662924  0.98146264832955  1.0000
  N   N3        1.0  0.8142456623233615  0.8879350160194469  0.9555101319599602  1.0000
  H   H7        1.0  0.03691558404799511  0.2504888934310865  0.7523836944268605  1.0000
  H   H8        1.0  0.9548124073008933  0.3657341759257573  0.2851281093939264  1.0000
  H   H9        1.0  0.949690556547626  0.24893426237517158  0.057009360237996846  1.0000
  H   H10       1.0  0.016702963325915476  0.72035960064396  0.6449503929527536  1.0000
  H   H11       1.0  0.9989181585382125  0.8641415836350699  0.020316698934945254  1.0000
  H   H12       1.0  0.9859166957625006  0.0368526843536694  0.9249044199586239  1.0000
  C   C21       1.0  0.9729256058921317  0.5872184832446949  0.9958339205813677  1.0000
  C   C22       1.0  0.0385861720900118  0.6499516318752998  0.06504681259290312  1.0000
  C   C23       1.0  0.0997881477787621  0.7233329460700115  0.9858222940078685  1.0000
  C   C24       1.0  0.09554903470709797  0.7343485936508716  0.8343297413444128  1.0000
  C   C25       1.0  0.03155841491827305  0.6707880399156039  0.7637926244646067  1.0000
  C   C26       1.0  0.9703586623853482  0.5947881074776649  0.8423524726737983  1.0000
  O   O1        1.0  0.16326060712011659  0.7842298760076969  0.06164661282312256  1.0000
  C   C27       1.0  0.22937259879283414  0.8619628216741573  0.995203507302564  1.0000
  H   H13       1.0  0.7827420098641222  0.49338797899651365  0.10493751021305629  1.0000
  H   H14       1.0  0.14180870118159983  0.7907029815426313  0.769849321142166  1.0000
  H   H15       1.0  0.8434939951805164  0.5259303185009074  0.5656377370547001  1.0000
  H   H16       1.0  0.2085510115730791  0.9590000373164582  0.9305223986189852  1.0000
  H   H17       1.0  0.2621921217417109  0.7912789157779754  0.9251826187787104  1.0000
  H   H18       1.0  0.27039359257625173  0.8975703014614835  0.08044892247199883  1.0000
  Zn  Zn1       1.0  0.8842741541209875  0.5885991174398084  0.41818736031947934  1.0000
  Zn  Zn2       1.0  0.05900249576619255  0.5934066165974698  0.41999831462892856  1.0000
  C   C28       1.0  0.9708078625658478  0.5876100103884814  0.6823460552311054  1.0000
  C   C29       1.0  0.972470705765574  0.5943975977004126  0.15583977978387997  1.0000
  C   C30       1.0  0.9732253055287831  0.8544408152579137  0.41317922422189035  1.0000
  C   C31       1.0  0.9700531926202304  0.3275650585886076  0.4250066881394796  1.0000
  O   O2        1.0  0.03862649467892565  0.5986251010829458  0.2102264595947192  1.0000
  O   O3        1.0  0.03726683679646547  0.5870301955768205  0.629333433631927  1.0000
  O   O4        1.0  0.03921805414695978  0.8024994338525726  0.41197930295780294  1.0000
  O   O5        1.0  0.03667521809467677  0.3831558705205431  0.4275804815737076  1.0000
  O   O6        1.0  0.9066013721663281  0.7988498618776747  0.410605192749128  1.0000
  O   O7        1.0  0.9046501653720666  0.5833823562052329  0.627959245451295  1.0000
  O   O8        1.0  0.906009828262785  0.5949771959435606  0.20885053853887436  1.0000
  O   O9        1.0  0.9040585512861151  0.37950795602874665  0.42620466858742634  1.0000
