data_image0
_chemical_formula_structural       NC9NC3OH6C9H9C6OCH7Zn2C4O8
_chemical_formula_sum              "N2 C32 O10 H22 Zn2"
_cell_length_a       15.78231758774541
_cell_length_b       9.272676604525723
_cell_length_c       9.273891588657152
_cell_angle_alpha    86.3289676754197
_cell_angle_beta     89.76748324947235
_cell_angle_gamma    90.18380166211226

_space_group_name_H-M_alt    "P 1"
_space_group_IT_number       1

loop_
  _space_group_symop_operation_xyz
  'x, y, z'

loop_
  _atom_site_type_symbol
  _atom_site_label
  _atom_site_symmetry_multiplicity
  _atom_site_fract_x
  _atom_site_fract_y
  _atom_site_fract_z
  _atom_site_occupancy
  N   N1        1.0  0.811856247827341  0.5549415241003057  0.41960576474617395  1.0000
  C   C1        1.0  0.7627236127336587  0.4640588942829506  0.44593281613529284  1.0000
  C   C2        1.0  0.7017237963990827  0.35125146318264977  0.47861147515167596  1.0000
  C   C3        1.0  0.7204502152264135  0.20954635262455734  0.5195729990048121  1.0000
  C   C4        1.0  0.6432656644206497  0.14087125848939164  0.5395073023038841  1.0000
  C   C5        1.0  0.5821777357070447  0.24574967338466447  0.509236904187065  1.0000
  C   C6        1.0  0.4889583516875555  0.22636018010959266  0.514935290799085  1.0000
  C   C7        1.0  0.4359991303789325  0.3452513496062999  0.48043682920483666  1.0000
  C   C8        1.0  0.3476873319388053  0.32935250197414656  0.48511731737249225  1.0000
  C   C9        1.0  0.2940545083684354  0.4517027888032594  0.44960595231302025  1.0000
  N   N2        1.0  0.2509465132470768  0.5500566211338394  0.4210579673339325  1.0000
  C   C10       1.0  0.31165229063496397  0.19438555244926903  0.5243498684795069  1.0000
  C   C11       1.0  0.36368218865291074  0.07574023091464864  0.5587818414766925  1.0000
  C   C12       1.0  0.45180543628950975  0.09120229891070554  0.5542285221325476  1.0000
  O   O1        1.0  0.6194574752630938  0.37004324789539145  0.473254376476477  1.0000
  H   H1        1.0  0.7825950944013086  0.1617577944455657  0.5333302555347765  1.0000
  H   H2        1.0  0.6337874559897324  0.027950309859253723  0.5721653639832069  1.0000
  H   H3        1.0  0.46329903661835287  0.4502795204655692  0.44990170737666113  1.0000
  H   H4        1.0  0.24344681301088764  0.1809200333688621  0.5283116428468164  1.0000
  H   H5        1.0  0.33565671273315856  0.9714300913978065  0.5891086795196898  1.0000
  H   H6        1.0  0.49027064180113594  0.9972269318076212  0.5815102262432632  1.0000
  C   C13       1.0  0.029010726844105095  0.1290204307073617  0.41848259023490963  1.0000
  C   C14       1.0  0.9947059630307015  0.19459283214068823  0.5377461084643647  1.0000
  C   C15       1.0  0.9681416364538155  0.11187532415306277  0.6605580522054557  1.0000
  C   C16       1.0  0.9750242911840383  0.9611195085587854  0.6682391432574597  1.0000
  C   C17       1.0  0.007944507787893237  0.8941026879095804  0.5478604967186598  1.0000
  C   C18       1.0  0.0338000440631514  0.9759666458076272  0.4221935830748047  1.0000
  C   C19       1.0  0.9453798268171287  0.8790997181451451  0.8066058315282847  1.0000
  C   C20       1.0  0.9026053764069971  0.7333498741482476  0.7921127038362765  1.0000
  C   C21       1.0  0.9918714438931685  0.7403581064333172  0.8533979671450718  1.0000
  H   H7        1.0  0.048596240339275426  0.42546763707689617  0.18234580449987048  1.0000
  H   H8        1.0  0.9902358053296048  0.31116382204903137  0.5375927583792672  1.0000
  H   H9        1.0  0.9427463712415731  0.16643286682464398  0.7510416275215757  1.0000
  H   H10       1.0  0.05693664376407256  0.8956648946230574  0.06933017132179753  1.0000
  H   H11       1.0  0.9210993797471102  0.9403230380128431  0.8972807801624156  1.0000
  H   H12       1.0  0.8990319368969597  0.6931340840079784  0.6822149416677539  1.0000
  H   H13       1.0  0.8532306319061082  0.7058776690005603  0.8751062449498441  1.0000
  H   H14       1.0  0.04249628403801317  0.7042720334191529  0.7808127525427488  1.0000
  H   H15       1.0  0.994666179287773  0.7169760192706568  0.9722288305233533  1.0000
  C   C22       1.0  0.03277177035078038  0.5486588424804375  0.9970506022953942  1.0000
  C   C23       1.0  0.10250133616856999  0.6087972570730897  0.06612066285660889  1.0000
  C   C24       1.0  0.16748589616627996  0.6797574865920835  0.9868385655700052  1.0000
  C   C25       1.0  0.16297386178352136  0.6909380834499101  0.835431587908444  1.0000
  C   C26       1.0  0.09501937332372473  0.6299066850474713  0.765021390535491  1.0000
  C   C27       1.0  0.030038952499403124  0.5563281963875275  0.843625530624319  1.0000
  O   O2        1.0  0.2348915850955937  0.7381461073829658  0.06252610169224426  1.0000
  C   C28       1.0  0.3050906661835804  0.8132639952654851  0.9960130162389267  1.0000
  H   H16       1.0  0.8307428304068063  0.46232891059727255  0.10701324556889835  1.0000
  H   H17       1.0  0.21209200090374003  0.7454623368267814  0.7709121518596778  1.0000
  H   H18       1.0  0.09437776115923086  0.6373465919882977  0.6479705187269422  1.0000
  H   H19       1.0  0.895276932717059  0.4924748394476213  0.5674520785372272  1.0000
  H   H20       1.0  0.2828994199978676  0.9111040836788843  0.931969807345451  1.0000
  H   H21       1.0  0.3400132593087628  0.741300550051849  0.9254035931713446  1.0000
  H   H22       1.0  0.3486561721790886  0.8472510438879817  0.08115103143674429  1.0000
  Zn  Zn1       1.0  0.9385681612801474  0.5535280699594614  0.42003313928442765  1.0000
  Zn  Zn2       1.0  0.12423446670888483  0.5514584121870527  0.42064232444790184  1.0000
  C   C29       1.0  0.0305211514620649  0.5491336454657996  0.6835795822057322  1.0000
  C   C30       1.0  0.03228351382970373  0.5558546349134099  0.1570960376284778  1.0000
  C   C31       1.0  0.032908918781835196  0.8158238064363299  0.41574809213843866  1.0000
  C   C32       1.0  0.029895673109540322  0.2891627427582639  0.42492759674546954  1.0000
  O   O3        1.0  0.10257901020699096  0.5574778929122366  0.2110399027880143  1.0000
  O   O4        1.0  0.10114208006692976  0.5459384734464172  0.6300976547852353  1.0000
  O   O5        1.0  0.10306927771048001  0.7612941753536471  0.41382183505719117  1.0000
  O   O6        1.0  0.10065174961532403  0.34212220104815216  0.4273156142756793  1.0000
  O   O7        1.0  0.9621508150149436  0.762864281806136  0.41335984924119007  1.0000
  O   O8        1.0  0.9602236274130213  0.5475103117912947  0.6296355997040759  1.0000
  O   O9        1.0  0.961660562919576  0.5590496653034347  0.21057611446318414  1.0000
  O   O10       1.0  0.9597333019172611  0.3436939641039787  0.4268519339757686  1.0000
