data_image0
_chemical_formula_structural       NC5OC5NC4H8C6NH7C6H6Zn2C4O8
_chemical_formula_sum              "N3 C30 O9 H21 Zn2"
_cell_length_a       19.189071930511275
_cell_length_b       9.274771166103582
_cell_length_c       10.68112160042829
_cell_angle_alpha    85.45578074471726
_cell_angle_beta     89.97791331363976
_cell_angle_gamma    90.58817672672019

_space_group_name_H-M_alt    "P 1"
_space_group_IT_number       1

loop_
  _space_group_symop_operation_xyz
  'x, y, z'

loop_
  _atom_site_type_symbol
  _atom_site_label
  _atom_site_symmetry_multiplicity
  _atom_site_fract_x
  _atom_site_fract_y
  _atom_site_fract_z
  _atom_site_occupancy
  N   N1        1.0  0.6641674271615634  0.5784879152618532  0.6157102715250697  1.0000
  C   C1        1.0  0.6099685072786349  0.6297124694037531  0.597990510138783  1.0000
  C   C2        1.0  0.5425520303143111  0.6934272787465063  0.575949791129911  1.0000
  C   C3        1.0  0.5333985588703257  0.8010831600762354  0.47798334486206573  1.0000
  C   C4        1.0  0.46791113514762106  0.8630550790669578  0.4566945998066209  1.0000
  C   C5        1.0  0.410917830009562  0.817256116550918  0.5320656074724647  1.0000
  O   O1        1.0  0.3462797438466365  0.883261733037389  0.5085864291736519  1.0000
  C   C6        1.0  0.2809757334573768  0.8170455755077136  0.5315218851191299  1.0000
  C   C7        1.0  0.224647229404271  0.9032257529897905  0.5605636129413458  1.0000
  C   C8        1.0  0.1585371508178393  0.8415709147065884  0.5826721366549987  1.0000
  C   C9        1.0  0.1480926947885314  0.6929336351611077  0.5746737346282612  1.0000
  C   C10       1.0  0.0800353953735359  0.6294404851036668  0.597287348428889  1.0000
  N   N2        1.0  0.025321328205750004  0.5783942008889131  0.6154681119248162  1.0000
  C   C11       1.0  0.2039462370001053  0.6064110476857127  0.5437836392832693  1.0000
  C   C12       1.0  0.27004767621555686  0.6681096938654443  0.5217171228544077  1.0000
  C   C13       1.0  0.420558515849332  0.7106028146679879  0.6315910412873582  1.0000
  C   C14       1.0  0.48603700341826067  0.6486263366876266  0.6529389796725222  1.0000
  H   H1        1.0  0.5768290145704926  0.8371954385632918  0.4182449276626829  1.0000
  H   H2        1.0  0.4612959492910402  0.9464019471610934  0.38089474696407044  1.0000
  H   H3        1.0  0.23226169755049775  0.01826921807601113  0.566721591324952  1.0000
  H   H4        1.0  0.1156318240937377  0.9097336361543907  0.6058065475022064  1.0000
  H   H5        1.0  0.19632610797177585  0.4915376972574219  0.5361067794083532  1.0000
  H   H6        1.0  0.31224506842803323  0.6001787859675234  0.49529052898734305  1.0000
  H   H7        1.0  0.3778491924676505  0.6769089711500094  0.6936912246381185  1.0000
  H   H8        1.0  0.49266459806000773  0.5664433298766303  0.729789479925863  1.0000
  C   C15       1.0  0.8426082365150978  0.15484508048416834  0.616273201172715  1.0000
  C   C16       1.0  0.8265722733922791  0.23815798337918653  0.5042961403198494  1.0000
  C   C17       1.0  0.817042783549114  0.17311106149865021  0.39160420235480253  1.0000
  C   C18       1.0  0.8235857910246518  0.0233737541872423  0.39007301622543156  1.0000
  C   C19       1.0  0.8383331111277957  0.9387417573321065  0.50051255605186  1.0000
  C   C20       1.0  0.8468871632873252  0.0020260093380948217  0.6149160368861635  1.0000
  N   N3        1.0  0.8014349774198917  0.25952335123558234  0.27839604343148333  1.0000
  H   H9        1.0  0.9210357676636984  0.23448507342329353  0.8902892447362234  1.0000
  H   H10       1.0  0.8230585351853075  0.354751602784823  0.5038174540485589  1.0000
  H   H11       1.0  0.8165836386373543  0.971888341613688  0.3033677183099144  1.0000
  H   H12       1.0  0.8414042501289227  0.8225769451943186  0.4969239790208861  1.0000
  H   H13       1.0  0.8968867582220782  0.7049467414799965  0.8013462190634372  1.0000
  H   H14       1.0  0.7966335831660225  0.3715984977974218  0.2783585887016271  1.0000
  H   H15       1.0  0.7944984297723837  0.21205512951957295  0.19375016703358813  1.0000
  C   C21       1.0  0.8447477099268396  0.5784355067351388  0.247849377912819  1.0000
  C   C22       1.0  0.7944631317230507  0.4982230264220791  0.18658885446345239  1.0000
  C   C23       1.0  0.7944630886808962  0.49822311892642146  0.0557067143915586  1.0000
  C   C24       1.0  0.84474765550049  0.5784355774595362  0.9833398135126195  1.0000
  C   C25       1.0  0.8949907289177313  0.6585815856050108  0.04459989072409676  1.0000
  C   C26       1.0  0.8949907198888082  0.6585815632396641  0.1754921894289545  1.0000
  H   H16       1.0  0.8955987519896546  0.659552364368821  0.5409433303494047  1.0000
  H   H17       1.0  0.7550477054403214  0.4353486933404891  0.23975264473353003  1.0000
  H   H18       1.0  0.7550476912291043  0.4353487612442295  0.011248615408980586  1.0000
  H   H19       1.0  0.9344113027339823  0.7214642039170014  0.9914804191233796  1.0000
  H   H20       1.0  0.934411267367335  0.7214641533591173  0.21990478671233665  1.0000
  H   H21       1.0  0.8955989669481847  0.6595518617465429  0.6790143052952459  1.0000
  Zn  Zn1       1.0  0.7683886309925569  0.5784570231671362  0.6156476219925426  1.0000
  Zn  Zn2       1.0  0.9211000823753933  0.5784133367900752  0.6155410193432065  1.0000
  C   C27       1.0  0.8447171050419988  0.5726890041303621  0.8443255954867601  1.0000
  C   C28       1.0  0.8447732851229307  0.5841831754055458  0.38686316468209836  1.0000
  C   C29       1.0  0.8460747597592868  0.8418907502909849  0.6101822522613388  1.0000
  C   C30       1.0  0.8434155695425714  0.314979696192744  0.6210065774854935  1.0000
  O   O2        1.0  0.9027350365448338  0.5860892736838546  0.43347701636020236  1.0000
  O   O3        1.0  0.9026598062209679  0.5707486607003986  0.7976304761166484  1.0000
  O   O4        1.0  0.9037553483381556  0.7881324754694046  0.608558068001674  1.0000
  O   O5        1.0  0.901639442369694  0.3687054692486327  0.6225493305988812  1.0000
  O   O6        1.0  0.7878492188853405  0.7881648907250574  0.6086393107666563  1.0000
  O   O7        1.0  0.7867536855183085  0.5707828090247085  0.7977116493334452  1.0000
  O   O8        1.0  0.7868289156346985  0.5861233717411394  0.433556684034911  1.0000
  O   O9        1.0  0.7857333214045951  0.3687395569886118  0.6226290921796745  1.0000
