data_image0
_chemical_formula_structural       NC5OC5NC4H8C6NCH9C6OCH7Zn2C4O8
_chemical_formula_sum              "N3 C32 O10 H24 Zn2"
_cell_length_a       19.189071930511275
_cell_length_b       9.273386996610926
_cell_length_c       9.273891588657152
_cell_angle_alpha    85.97842517681073
_cell_angle_beta     89.6582401659116
_cell_angle_gamma    89.38971707573329

_space_group_name_H-M_alt    "P 1"
_space_group_IT_number       1

loop_
  _space_group_symop_operation_xyz
  'x, y, z'

loop_
  _atom_site_type_symbol
  _atom_site_label
  _atom_site_symmetry_multiplicity
  _atom_site_fract_x
  _atom_site_fract_y
  _atom_site_fract_z
  _atom_site_occupancy
  N   N1        1.0  0.6525785158706514  0.5643252685970161  0.4070013883312294  1.0000
  C   C1        1.0  0.597917640344391  0.6153728728052938  0.3866159311225794  1.0000
  C   C2        1.0  0.5299265684508325  0.6788675829181726  0.3612594871375933  1.0000
  C   C3        1.0  0.5199939347499459  0.7855206037590066  0.24852190173329425  1.0000
  C   C4        1.0  0.4539471633209394  0.8472799930508694  0.2240306379564536  1.0000
  C   C5        1.0  0.3971789605146584  0.8022577679652119  0.310772950686534  1.0000
  O   O1        1.0  0.33194765976498886  0.8680286594026919  0.2837612952768761  1.0000
  C   C6        1.0  0.2672407090685547  0.8020415478844376  0.31014709335485513  1.0000
  C   C7        1.0  0.20994921671292832  0.8885355446625445  0.34359014818307365  1.0000
  C   C8        1.0  0.1443926920986907  0.8271017984018523  0.3690250267362084  1.0000
  C   C9        1.0  0.1354762521828886  0.6783606113230363  0.35979066897457657  1.0000
  C   C10       1.0  0.0679894980880316  0.6150935442066152  0.38580654949932874  1.0000
  N   N2        1.0  0.013734128867068207  0.564229024938182  0.40672264798769686  1.0000
  C   C11       1.0  0.1923020796659163  0.5915049510776054  0.32422010236021925  1.0000
  C   C12       1.0  0.2578493893859966  0.6529829478440022  0.29883358197828536  1.0000
  C   C13       1.0  0.4075837506804133  0.6966236656091024  0.425305101056174  1.0000
  C   C14       1.0  0.4736214451811461  0.6348603317409911  0.4498644947049788  1.0000
  H   H1        1.0  0.5632478728347974  0.8210172205397408  0.17977064950240826  1.0000
  H   H2        1.0  0.4467286087414492  0.9298509220844712  0.13680187977798886  1.0000
  H   H3        1.0  0.2163811219756285  0.003659093277172961  0.35069980589559835  1.0000
  H   H4        1.0  0.10072518756323351  0.8955144375699591  0.3956654070193444  1.0000
  H   H5        1.0  0.18586758856399585  0.47653575890928224  0.31536226452082006  1.0000
  H   H6        1.0  0.300817008788098  0.5847679470666731  0.2684039866975978  1.0000
  H   H7        1.0  0.3650190379845077  0.6635703622773554  0.4967751754145109  1.0000
  H   H8        1.0  0.4808373247858694  0.5534643436630919  0.5383027557818856  1.0000
  C   C15       1.0  0.8353006999913624  0.14062900003840628  0.40756864499922174  1.0000
  C   C16       1.0  0.8478944002256386  0.22292482012811285  0.2772333466765625  1.0000
  C   C17       1.0  0.853926608802373  0.15724382678593063  0.1468950566418168  1.0000
  C   C18       1.0  0.8474601000583701  0.006914731773304705  0.1435596633631262  1.0000
  C   C19       1.0  0.8360957278055126  0.9236515831922955  0.2734412909771997  1.0000
  C   C20       1.0  0.8310186418811834  0.9879143229229698  0.40616788078438515  1.0000
  N   N3        1.0  0.8529105772258619  0.9361731787908287  0.010530955540557933  1.0000
  C   C21       1.0  0.8649055419936728  0.012796803441231375  0.8698655013694541  1.0000
  H   H9        1.0  0.848889050215417  0.4049062054400927  0.6441982148297076  1.0000
  H   H10       1.0  0.8514536784464537  0.3395538026893339  0.275462239520182  1.0000
  H   H11       1.0  0.8629834773190347  0.22495974424094167  0.04898103043097766  1.0000
  H   H12       1.0  0.8328126514205264  0.8072308626919928  0.2711699891580275  1.0000
  H   H13       1.0  0.8557143708214533  0.8597147876989981  0.7572134170758076  1.0000
  H   H14       1.0  0.8479755407915026  0.8238343511852125  0.013523678655237289  1.0000
  H   H15       1.0  0.8217727475612107  0.09115579222411217  0.8448553103027869  1.0000
  H   H16       1.0  0.9153451079130281  0.07033721501954227  0.8700591590721434  1.0000
  H   H17       1.0  0.8668963500132911  0.9345894148050855  0.7845332522511281  1.0000
  C   C22       1.0  0.8343206272030371  0.5604505750676679  0.9835983523537464  1.0000
  C   C23       1.0  0.8910825617590934  0.6213700852746269  0.052027263242415  1.0000
  C   C24       1.0  0.9438371588011412  0.6930633092957106  0.9720579689639033  1.0000
  C   C25       1.0  0.9400179347480137  0.7041984682028553  0.8206018526951717  1.0000
  C   C26       1.0  0.8847244930636262  0.6424050372454587  0.7508310580949269  1.0000
  C   C27       1.0  0.831998713828301  0.5680927124362516  0.8301381218052561  1.0000
  O   O2        1.0  0.9987049189772987  0.7522070803097171  0.04712419310059479  1.0000
  C   C28       1.0  0.05570758727327774  0.8281162596110726  0.9798780062241991  1.0000
  H   H18       1.0  0.6690097894897219  0.47188733364127805  0.09489001944215247  1.0000
  H   H19       1.0  0.9798835060130763  0.7592770517598442  0.7555576553515262  1.0000
  H   H20       1.0  0.8841246162670685  0.6498404643035971  0.6337380233969365  1.0000
  H   H21       1.0  0.7217900877122391  0.5027475188468278  0.5548888719465088  1.0000
  H   H22       1.0  0.03650781554224136  0.9257473872244207  0.9153354633695088  1.0000
  H   H23       1.0  0.08512646263982254  0.7565094344423748  0.9095612845316194  1.0000
  H   H24       1.0  0.09120600929007217  0.8625901050540304  0.06463700795563598  1.0000
  Zn  Zn1       1.0  0.7568002298077574  0.5642937212161668  0.40692927366510423  1.0000
  Zn  Zn2       1.0  0.9095124594060421  0.5642489210654549  0.40680656710630236  1.0000
  C   C29       1.0  0.8324651075486302  0.5609009853534312  0.6701335000724967  1.0000
  C   C30       1.0  0.8338492396905364  0.5676434779962531  0.14360247782072344  1.0000
  C   C31       1.0  0.8318402208269071  0.8277075240239165  0.40068886705957846  1.0000
  C   C32       1.0  0.8344740828511983  0.3008352067540262  0.41304719058697087  1.0000
  O   O3        1.0  0.891644564809376  0.5700341866468122  0.1972547678890575  1.0000
  O   O4        1.0  0.8905748378127518  0.5584751823429209  0.6163876654441064  1.0000
  O   O5        1.0  0.8900694485305739  0.7739248503077685  0.3988092160684369  1.0000
  O   O6        1.0  0.8921499022254825  0.35458452804176854  0.4148331092163194  1.0000
  O   O7        1.0  0.7741627348751409  0.7739581142566434  0.39890273158937717  1.0000
  O   O8        1.0  0.7746681156052043  0.558510178880328  0.616481101246007  1.0000
  O   O9        1.0  0.7757378476554072  0.5700691172667474  0.19734647082234333  1.0000
  O   O10       1.0  0.7762431848244092  0.35461944931869027  0.41492492023230265  1.0000
