data_image0
_chemical_formula_structural       NC9NC3OH6C10ClC2H7C10ClC2H9Zn2C4O8
_chemical_formula_sum              "N2 C40 O9 H22 Cl2 Zn2"
_cell_length_a       15.78231758774541
_cell_length_b       10.299769246903262
_cell_length_c       10.299772619071826
_cell_angle_alpha    85.54440032350014
_cell_angle_beta     90.08793308491676
_cell_angle_gamma    89.64978214069643

_space_group_name_H-M_alt    "P 1"
_space_group_IT_number       1

loop_
  _space_group_symop_operation_xyz
  'x, y, z'

loop_
  _atom_site_type_symbol
  _atom_site_label
  _atom_site_symmetry_multiplicity
  _atom_site_fract_x
  _atom_site_fract_y
  _atom_site_fract_z
  _atom_site_occupancy
  N   N1        1.0  0.7980852203569345  0.41370388703197913  0.5699543480583871  1.0000
  C   C1        1.0  0.7495381565220983  0.33163379113492697  0.5940316396911121  1.0000
  C   C2        1.0  0.6892651777277503  0.2297648530766483  0.6239177614869864  1.0000
  C   C3        1.0  0.7089043333267931  0.1018010759181451  0.6613801366721126  1.0000
  C   C4        1.0  0.6321624011576977  0.03978479681677972  0.6796104214734389  1.0000
  C   C5        1.0  0.5703990926443301  0.13449262426424818  0.6519252566433971  1.0000
  C   C6        1.0  0.4773049091962911  0.11698256560633304  0.6571355869084285  1.0000
  C   C7        1.0  0.42357946106282335  0.22434581071113976  0.6255859502876726  1.0000
  C   C8        1.0  0.335370350087483  0.20998798015470935  0.6298654569038309  1.0000
  C   C9        1.0  0.2809489759856327  0.320475017161991  0.597389620792977  1.0000
  N   N2        1.0  0.23720708329923912  0.40929234055419234  0.5712819509685263  1.0000
  C   C10       1.0  0.3002053708714424  0.08810710872624616  0.6657435892440438  1.0000
  C   C11       1.0  0.35299992738078956  0.9809658327435092  0.6972323549826889  1.0000
  C   C12       1.0  0.4410233039242037  0.9949292310635467  0.6930691413803334  1.0000
  O   O1        1.0  0.6068780655099125  0.2467337411958832  0.619017278358569  1.0000
  H   H1        1.0  0.7713568354689767  0.058647115604559596  0.6739629437394385  1.0000
  H   H2        1.0  0.6234115840809166  0.9378138000643484  0.7094784300817598  1.0000
  H   H3        1.0  0.45020228758092457  0.319190741419237  0.5976616800079406  1.0000
  H   H4        1.0  0.23208685648744368  0.07594677303761709  0.6693659863722283  1.0000
  H   H5        1.0  0.3256469038519097  0.8867693110708829  0.7249661440551056  1.0000
  H   H6        1.0  0.4800942027631241  0.9100657926446666  0.7180187113074012  1.0000
  C   C13       1.0  0.017570528528328303  0.03013375682870434  0.570612672882999  1.0000
  C   C14       1.0  0.02538922155296673  0.03964458124540916  0.43442773951955616  1.0000
  C   C15       1.0  0.02943200406957212  0.9273235491072271  0.365432625669325  1.0000
  C   C16       1.0  0.025550065315820925  0.8043548011716828  0.43445016922344304  1.0000
  C   C17       1.0  0.017729887185850224  0.7928523857407627  0.5706348233118619  1.0000
  C   C18       1.0  0.013784134700438584  0.9062986414430706  0.6379534468285271  1.0000
  C   C19       1.0  0.03770499496246481  0.9384381919572867  0.22136044163292246  1.0000
  C   C20       1.0  0.09263870109230637  0.8549634296458432  0.15903851498684807  1.0000
  C   C21       1.0  0.10035004463233926  0.865621410854828  0.02342407321932893  1.0000
  C   C22       1.0  0.053373965425586006  0.9594891246652176  0.9484782996714904  1.0000
  Cl  Cl1       1.0  0.06314231089798623  0.972612894768333  0.7783482369776973  1.0000
  C   C23       1.0  0.9986016118609163  0.04288287901548005  0.009309796177233261  1.0000
  C   C24       1.0  0.9907399872409512  0.032619009893252615  0.1449034926872681  1.0000
  H   H7        1.0  0.029520659610625652  0.13462127931558698  0.38185150791061506  1.0000
  H   H8        1.0  0.027474123373351294  0.7175142639819083  0.38156758131974255  1.0000
  H   H9        1.0  0.0077520846905725325  0.8981933990277225  0.7430137829268968  1.0000
  H   H10       1.0  0.13042461012810158  0.7826289913275217  0.21525766110745992  1.0000
  H   H11       1.0  0.14302697424989574  0.8010556463089357  0.9767652613631785  1.0000
  H   H12       1.0  0.9619153528511167  0.11549663418067421  0.9516415508697308  1.0000
  H   H13       1.0  0.9471460337158911  0.09715036668357357  0.18983430248907185  1.0000
  C   C25       1.0  0.017631982940552456  0.4116129449256758  0.18925344093746221  1.0000
  C   C26       1.0  0.10425693772896388  0.44196465247113426  0.18610355539034962  1.0000
  C   C27       1.0  0.14816930096981584  0.45722242803706775  0.06737833748190591  1.0000
  C   C28       1.0  0.10429376810828912  0.4417226288543632  0.9508360407834601  1.0000
  C   C29       1.0  0.01766841001890107  0.41137318587849014  0.9519940622323446  1.0000
  C   C30       1.0  0.9748227321460597  0.3964878975414614  0.0716887353273421  1.0000
  C   C31       1.0  0.23981168331208136  0.4893298859053321  0.06509918413387594  1.0000
  C   C32       1.0  0.29561284832164336  0.42814415172053755  0.9821819200494315  1.0000
  C   C33       1.0  0.38185154970921786  0.4584778992867651  0.9802230241282578  1.0000
  C   C34       1.0  0.4133882145380017  0.5501444460912381  0.060781340237243686  1.0000
  Cl  Cl2       1.0  0.5216053891252195  0.5880604937688805  0.05808869875438316  1.0000
  C   C35       1.0  0.35855896153161193  0.6115513948301785  0.1434885072261114  1.0000
  C   C36       1.0  0.27228590452133483  0.5814438405557896  0.14582086861271648  1.0000
  H   H14       1.0  0.9846154985483244  0.4000957907695836  0.5179033132705941  1.0000
  H   H15       1.0  0.13805004691098174  0.4520555710484035  0.27632991204382695  1.0000
  H   H16       1.0  0.13758153468480036  0.4551343805882615  0.8589416209425487  1.0000
  H   H17       1.0  0.9079954550436709  0.3730733494709757  0.07335065011810094  1.0000
  H   H18       1.0  0.9846688522312432  0.3997481168862991  0.6249866044876109  1.0000
  H   H19       1.0  0.27275783434129286  0.35565793231666776  0.9201464064989588  1.0000
  H   H20       1.0  0.42411592470990533  0.4104046470798523  0.9162662710991922  1.0000
  H   H21       1.0  0.3826555381852448  0.6828748138407537  0.20579433406725278  1.0000
  H   H22       1.0  0.2308008362635232  0.631387892620378  0.20945678446728588  1.0000
  Zn  Zn1       1.0  0.9248063004358216  0.41242733872301773  0.5703449589737999  1.0000
  Zn  Zn2       1.0  0.11048597302047652  0.4105582861838575  0.5709019561031754  1.0000
  C   C37       1.0  0.01765854702076019  0.4062449381872617  0.8078196232376993  1.0000
  C   C38       1.0  0.017635754400174383  0.4167423048693901  0.333427425436265  1.0000
  C   C39       1.0  0.017695132870027656  0.6486840200966653  0.5654554652037473  1.0000
  C   C40       1.0  0.017599104868780243  0.17430166329222824  0.5757916524736437  1.0000
  O   O2        1.0  0.0881014870210648  0.417748803552689  0.3820249090226191  1.0000
  O   O3        1.0  0.0881193893339447  0.4038188922804749  0.7596445137085808  1.0000
  O   O4        1.0  0.08814798303966583  0.5995915261202116  0.5639337385193126  1.0000
  O   O5        1.0  0.08807282995274024  0.22197617967144767  0.5777355866470635  1.0000
  O   O6        1.0  0.9472193801401982  0.6010094458746595  0.5635113282330046  1.0000
  O   O7        1.0  0.947190786753244  0.4052383723419128  0.7592220342219398  1.0000
  O   O8        1.0  0.947172884412708  0.41916823884887466  0.3816008681283609  1.0000
  O   O9        1.0  0.9471442273436277  0.22339560564837013  0.5773116431207224  1.0000
