data_image0
_chemical_formula_structural       NC9NC3OH6C6ClH3C9H8Zn2C4O8
_chemical_formula_sum              "N2 C31 O9 H17 Cl1 Zn2"
_cell_length_a       15.78231758774541
_cell_length_b       10.30297070629231
_cell_length_c       9.275155815604961
_cell_angle_alpha    86.05280978821669
_cell_angle_beta     90.4446892459172
_cell_angle_gamma    89.63144908567993

_space_group_name_H-M_alt    "P 1"
_space_group_IT_number       1

loop_
  _space_group_symop_operation_xyz
  'x, y, z'

loop_
  _atom_site_type_symbol
  _atom_site_label
  _atom_site_symmetry_multiplicity
  _atom_site_fract_x
  _atom_site_fract_y
  _atom_site_fract_z
  _atom_site_occupancy
  N   N1        1.0  0.7920366156142138  0.40057404178801975  0.4129210525466114  1.0000
  C   C1        1.0  0.7436035672358557  0.31874288181983634  0.4396441503315025  1.0000
  C   C2        1.0  0.6834721107465237  0.21717052443855314  0.4728143991459346  1.0000
  C   C3        1.0  0.7032887216901064  0.08957859537957623  0.5143934496297811  1.0000
  C   C4        1.0  0.6266330912574457  0.027743190311722673  0.5346270205319343  1.0000
  C   C5        1.0  0.5647386115558642  0.12217617410682236  0.5038995765093179  1.0000
  C   C6        1.0  0.47166904884434824  0.10471774456873151  0.509682451644617  1.0000
  C   C7        1.0  0.41779423778125047  0.2117679547402245  0.4746658933124866  1.0000
  C   C8        1.0  0.3296053440281005  0.19745252239918099  0.4794156590854817  1.0000
  C   C9        1.0  0.27503022802814314  0.30761734334501395  0.4433711240982463  1.0000
  N   N2        1.0  0.23116474151111122  0.39617563516414395  0.414394539457799  1.0000
  C   C10       1.0  0.2946101754442339  0.07592756806776246  0.5192363553781404  1.0000
  C   C11       1.0  0.3475538036087689  0.9690987185110653  0.5541853533797354  1.0000
  C   C12       1.0  0.43555751321250136  0.9830208720704228  0.5495646597673882  1.0000
  O   O1        1.0  0.6010617374212468  0.23409070031256474  0.46737540303153696  1.0000
  H   H1        1.0  0.7658008635650767  0.04654958412570887  0.5283589650973621  1.0000
  H   H2        1.0  0.6180237449431415  0.9260686447278801  0.567777171018597  1.0000
  H   H3        1.0  0.4442849025219783  0.30633587691775716  0.4436730908749804  1.0000
  H   H4        1.0  0.22650877545736978  0.06380312261935162  0.5232568045610875  1.0000
  H   H5        1.0  0.3203320400349483  0.8751773153557403  0.58496674303321  1.0000
  H   H6        1.0  0.47474652049097976  0.8984049706282657  0.5772558829882972  1.0000
  C   C13       1.0  0.011604730098581751  0.017127407146435118  0.4136640165810388  1.0000
  C   C14       1.0  0.09920151988475928  0.013322242854586941  0.44171795021509547  1.0000
  C   C15       1.0  0.14266470861190206  0.894477377206858  0.45563746256731186  1.0000
  C   C16       1.0  0.09920151895965555  0.7782142736682818  0.44171788243016136  1.0000
  C   C17       1.0  0.011604739444008624  0.7796123495053493  0.41366409911566  1.0000
  C   C18       1.0  0.9682333392320818  0.899658052488943  0.3997738509157551  1.0000
  Cl  Cl1       1.0  0.25209396915214266  0.8912273365777198  0.49068341031317614  1.0000
  H   H7        1.0  0.13404089158106758  0.10233410009324295  0.45287555767645493  1.0000
  H   H8        1.0  0.13404085769239726  0.6871329068015304  0.45287545401478924  1.0000
  H   H9        1.0  0.9006760365361823  0.9016643831806279  0.3781377695164932  1.0000
  C   C19       1.0  0.010052229407628168  0.3951038036732879  0.9904275876438003  1.0000
  C   C20       1.0  0.9437659353375708  0.45902774882945785  0.05802004076129541  1.0000
  C   C21       1.0  0.8831551199322693  0.5315231889941747  0.9765318976557511  1.0000
  C   C22       1.0  0.887706570893509  0.5416112958752215  0.8259653726623762  1.0000
  C   C23       1.0  0.952287733773534  0.4770068929973732  0.7566588332648596  1.0000
  C   C24       1.0  0.013157240524802372  0.40163587694100356  0.8369004320953235  1.0000
  C   C25       1.0  0.825382962921655  0.6171570183004687  0.7421588640951052  1.0000
  C   C26       1.0  0.7731981686995034  0.6804162168550432  0.6719557174941251  1.0000
  C   C27       1.0  0.7098813046864576  0.7571705527785231  0.5867645943981352  1.0000
  H   H10       1.0  0.20672687105130505  0.28838737647242474  0.1040453626306943  1.0000
  H   H11       1.0  0.939959121586905  0.45546704845930774  0.1747988051983358  1.0000
  H   H12       1.0  0.8331524197912393  0.5808208636211256  0.031177148286076758  1.0000
  H   H13       1.0  0.9538533208295574  0.48309608650978114  0.6395177908225578  1.0000
  H   H14       1.0  0.14438625105260783  0.325137626132298  0.5637583736698404  1.0000
  H   H15       1.0  0.7270998281739058  0.760728261714108  0.47082338239599064  1.0000
  H   H16       1.0  0.6467734228374676  0.7115713990881778  0.6015791188594601  1.0000
  H   H17       1.0  0.7077368843000841  0.857439624479855  0.6232621293878342  1.0000
  Zn  Zn1       1.0  0.9187595339183667  0.3993013529496108  0.41335458515594525  1.0000
  Zn  Zn2       1.0  0.10444183793190737  0.3974378188267462  0.41397278865033527  1.0000
  C   C28       1.0  0.012568449284903848  0.39522919538148127  0.6768989680800785  1.0000
  C   C29       1.0  0.010634950729317966  0.4015115952344246  0.15042855393703272  1.0000
  C   C30       1.0  0.011579323069544227  0.6354421584372334  0.40792071309137956  1.0000
  C   C31       1.0  0.011624013866093462  0.1612970736019308  0.419406885554521  1.0000
  O   O2        1.0  0.0812959840095786  0.4029492431937163  0.2043609448560184  1.0000
  O   O3        1.0  0.08283598683294112  0.39237618553010556  0.6234353644213544  1.0000
  O   O4        1.0  0.08203631049389742  0.5863512122032914  0.40623351728962076  1.0000
  O   O5        1.0  0.08209559659142801  0.20897422560977133  0.4215626837121256  1.0000
  O   O6        1.0  0.9411057118945612  0.5877649468038735  0.40576468987561154  1.0000
  O   O7        1.0  0.9419053879479035  0.3937914793447173  0.6229664601600127  1.0000
  O   O8        1.0  0.9403653788245906  0.40436447839432327  0.20389030778012907  1.0000
  O   O9        1.0  0.9411649917993488  0.21038945235842513  0.4210921546933198  1.0000
