data_image0
_chemical_formula_structural       NC9NC3OH6C7OCH10C8NH11Zn2C4O8
_chemical_formula_sum              "N3 C32 O10 H27 Zn2"
_cell_length_a       15.78231758774541
_cell_length_b       10.30083208314754
_cell_length_c       9.275652972338538
_cell_angle_alpha    85.92062759394871
_cell_angle_beta     90.52078220685846
_cell_angle_gamma    89.62603918792362

_space_group_name_H-M_alt    "P 1"
_space_group_IT_number       1

loop_
  _space_group_symop_operation_xyz
  'x, y, z'

loop_
  _atom_site_type_symbol
  _atom_site_label
  _atom_site_symmetry_multiplicity
  _atom_site_fract_x
  _atom_site_fract_y
  _atom_site_fract_z
  _atom_site_occupancy
  N   N1        1.0  0.7906952897617362  0.40373018313464293  0.4122345522015123  1.0000
  C   C1        1.0  0.742288541460082  0.32183233328254346  0.43899138006078453  1.0000
  C   C2        1.0  0.6821897300652949  0.22017719685214  0.4722034961328008  1.0000
  C   C3        1.0  0.7020472790305812  0.09248144097639543  0.5138351303794975  1.0000
  C   C4        1.0  0.6254115539926207  0.030595569966517685  0.5340941931856995  1.0000
  C   C5        1.0  0.563486811586885  0.1251053158697386  0.5033278354540116  1.0000
  C   C6        1.0  0.4704229242756258  0.10763251275121609  0.509117914684065  1.0000
  C   C7        1.0  0.41651366225332237  0.214770068694089  0.47405722562008545  1.0000
  C   C8        1.0  0.32832942845740987  0.20044283620358394  0.4788128993228562  1.0000
  C   C9        1.0  0.2737188519146899  0.3106975605961346  0.4427229487395175  1.0000
  N   N2        1.0  0.22982485856980422  0.3993281257330261  0.4137098556852936  1.0000
  C   C10       1.0  0.2933734238431639  0.07881860193194853  0.5186837001708804  1.0000
  C   C11       1.0  0.34635143555265724  0.971902578573965  0.5536767381184622  1.0000
  C   C12       1.0  0.4343506121028368  0.9858362106285365  0.5490502987443568  1.0000
  O   O1        1.0  0.5997739869445011  0.23711100784734349  0.46675753403590536  1.0000
  H   H1        1.0  0.7645731821853218  0.04941751613498346  0.5278183736894064  1.0000
  H   H2        1.0  0.6168348434351987  0.9288382574107263  0.5672862478827065  1.0000
  H   H3        1.0  0.442973846350291  0.3094152576044069  0.44302543246314063  1.0000
  H   H4        1.0  0.2252759687408147  0.06668416656691377  0.5227091528425614  1.0000
  H   H5        1.0  0.31915994461171115  0.877904436083808  0.584496851974641  1.0000
  H   H6        1.0  0.4735668607883909  0.9011512450850165  0.5767764055620068  1.0000
  C   C13       1.0  0.010288445681828183  0.020193043885410537  0.4131235376748912  1.0000
  C   C14       1.0  0.9860495829824893  0.028973855485685093  0.26668472199763005  1.0000
  C   C15       1.0  0.9728575761977974  0.9162605874634494  0.19337885755901496  1.0000
  C   C16       1.0  0.9859867189938526  0.793713268508927  0.26630367946960765  1.0000
  C   C17       1.0  0.010239870969737993  0.7828552808436119  0.41283337404585696  1.0000
  C   C18       1.0  0.022050100511334478  0.8966314668058282  0.48546547396146106  1.0000
  C   C19       1.0  0.9493472127429069  0.9268223290483638  0.035639861915090165  1.0000
  O   O2        1.0  0.02423877019438024  0.9314933065128411  0.9534932570659613  1.0000
  C   C20       1.0  0.0030201565401111194  0.9414453691973367  0.8051305384680498  1.0000
  H   H7        1.0  0.020532681103685432  0.3442464816740698  0.46878327008461246  1.0000
  H   H8        1.0  0.9773483315162143  0.12340088996088494  0.20903396067638136  1.0000
  H   H9        1.0  0.9772415413664237  0.706991762483646  0.20839132989239428  1.0000
  H   H10       1.0  0.040751340551196114  0.8890963720468679  0.5984012200119859  1.0000
  H   H11       1.0  0.056918993412443664  0.5551410170137965  0.6888141096358966  1.0000
  H   H12       1.0  0.9102281785839772  0.016341233441655723  0.011412385390296098  1.0000
  H   H13       1.0  0.9102607242864156  0.8412494597907236  0.011081992052153652  1.0000
  H   H14       1.0  0.06243025958771842  0.9450083805096146  0.7420204383309845  1.0000
  H   H15       1.0  0.9667946653285359  0.03253645777503955  0.7749510026755013  1.0000
  H   H16       1.0  0.9668077983260627  0.8550521702268066  0.7745938690961678  1.0000
  C   C21       1.0  0.008377959606171487  0.3990121497793422  0.9897023314890937  1.0000
  C   C22       1.0  0.9534121065026459  0.48450632978125546  0.05563249420448746  1.0000
  C   C23       1.0  0.905136220548812  0.5775110172269786  0.9727350775639289  1.0000
  C   C24       1.0  0.9106816992586577  0.5837819588244624  0.821965925879661  1.0000
  C   C25       1.0  0.9637818883898674  0.498364285569993  0.7546213959584014  1.0000
  C   C26       1.0  0.01215035522776664  0.4040361863972344  0.8362545441504801  1.0000
  C   C27       1.0  0.8456591624022046  0.6669475772183877  0.045045200500993594  1.0000
  C   C28       1.0  0.7585397489151905  0.6043729286247623  0.06556400186217304  1.0000
  N   N3        1.0  0.7010643379882783  0.6927058339126413  0.1335454271842884  1.0000
  H   H17       1.0  0.07049814486267086  0.20545486750957528  0.28659163935553034  1.0000
  H   H18       1.0  0.9493818058134699  0.48093384512213017  0.17244785867456502  1.0000
  H   H19       1.0  0.8731047320897364  0.6541041874546751  0.7562298838335542  1.0000
  H   H20       1.0  0.9653113497905313  0.5039260572818105  0.6376045398260297  1.0000
  H   H21       1.0  0.1283600314350219  0.28393462196895136  0.5662100531177741  1.0000
  H   H22       1.0  0.8721938298115559  0.6894990197693212  0.15183997092425372  1.0000
  H   H23       1.0  0.8388695863648422  0.7607685061868308  0.9786772403049779  1.0000
  H   H24       1.0  0.7320496113450419  0.5828644075879437  0.958351829907222  1.0000
  H   H25       1.0  0.764527110893753  0.5113071432214675  0.13381215841934724  1.0000
  H   H26       1.0  0.6412188166554512  0.6496981880819068  0.13776378200159822  1.0000
  H   H27       1.0  0.7209056756811135  0.6990065474614158  0.24072954257137558  1.0000
  Zn  Zn1       1.0  0.9174186312363065  0.4024564251380256  0.4126686111338209  1.0000
  Zn  Zn2       1.0  0.10310154178449972  0.4005913550988845  0.41328758369221474  1.0000
  C   C29       1.0  0.011435708827653311  0.3979133141009885  0.6762400180411317  1.0000
  C   C30       1.0  0.009086492370774302  0.40513608508765  0.14971632439388882  1.0000
  C   C31       1.0  0.010219073253184597  0.6386618415610954  0.40714433258739446  1.0000
  C   C32       1.0  0.010303065026511234  0.1643859985516567  0.4188120870770564  1.0000
  O   O3        1.0  0.07978997965855011  0.4064778841059282  0.20365338117433596  1.0000
  O   O4        1.0  0.08166125244931786  0.3951549879770937  0.6227723325566352  1.0000
  O   O5        1.0  0.0806778606039289  0.5895624870178178  0.40547565897579263  1.0000
  O   O6        1.0  0.08077330766074974  0.21207039434965824  0.42094994646562656  1.0000
  O   O7        1.0  0.9397468019955586  0.5909773865250778  0.4050062481416019  1.0000
  O   O8        1.0  0.9407301933951805  0.39657144719806475  0.6223028442742078  1.0000
  O   O9        1.0  0.9388589129412337  0.4078942877895728  0.20318215993217836  1.0000
  O   O10       1.0  0.9398422414221241  0.2134867893866743  0.4204788332942144  1.0000
