data_image0
_chemical_formula_structural       NC5NC3BrH3C6NH7C9H10Zn2C4O8
_chemical_formula_sum              "N3 C27 Br1 H20 Zn2 O8"
_cell_length_a       13.839083392302014
_cell_length_b       9.274771166103582
_cell_length_c       10.297187173949778
_cell_angle_alpha    85.46307945309522
_cell_angle_beta     89.97508670927832
_cell_angle_gamma    90.6230172981901

_space_group_name_H-M_alt    "P 1"
_space_group_IT_number       1

loop_
  _space_group_symop_operation_xyz
  'x, y, z'

loop_
  _atom_site_type_symbol
  _atom_site_label
  _atom_site_symmetry_multiplicity
  _atom_site_fract_x
  _atom_site_fract_y
  _atom_site_fract_z
  _atom_site_occupancy
  N   N1        1.0  0.9214097537779585  0.5790891030936374  0.5645494424507265  1.0000
  C   C1        1.0  0.8489616921687508  0.5154247909522205  0.5668751906721081  1.0000
  C   C2        1.0  0.7586980175105655  0.43620437474373647  0.5697690834654685  1.0000
  C   C3        1.0  0.6716748986789213  0.5124316157159081  0.5669847052757508  1.0000
  C   C4        1.0  0.5831051565417172  0.43767762403838045  0.5697152155337613  1.0000
  C   C5        1.0  0.49389607533137003  0.5162571016410713  0.5668447714493656  1.0000
  N   N2        1.0  0.4221835784968205  0.5794288412629383  0.564536981862747  1.0000
  C   C6        1.0  0.5814905198648087  0.2863847771637915  0.5752415296705973  1.0000
  C   C7        1.0  0.6680677440295743  0.21003622514269304  0.5780302567263289  1.0000
  C   C8        1.0  0.7568285153673916  0.28407583708528983  0.5753258589875194  1.0000
  Br  Br1       1.0  0.8734608042976618  0.17394610261626586  0.5793486771409728  1.0000
  H   H1        1.0  0.6728710150483672  0.6296707675564797  0.5627020998242132  1.0000
  H   H2        1.0  0.5133840713475704  0.2275111259976705  0.5773917819887517  1.0000
  H   H3        1.0  0.6661101751426328  0.09304636879727024  0.582303416031597  1.0000
  C   C9        1.0  0.16883445323447788  0.1556604942923896  0.5652513258934031  1.0000
  C   C10       1.0  0.146637868769252  0.23893830766465185  0.449089676188668  1.0000
  C   C11       1.0  0.13346336646223023  0.17386400350648668  0.33219080360241304  1.0000
  C   C12       1.0  0.14253638941169666  0.02413433177667713  0.3306068676304952  1.0000
  C   C13       1.0  0.1629466821192518  0.9395356603874129  0.44517283268769314  1.0000
  C   C14       1.0  0.1747680559737861  0.002846366235100379  0.5638464016702949  1.0000
  N   N3        1.0  0.11186088812672935  0.2602415433497196  0.21475244924432402  1.0000
  H   H4        1.0  0.2774866722738607  0.23543338129615776  0.8495332706979759  1.0000
  H   H5        1.0  0.14176590743915352  0.3555276425084506  0.44859082371143355  1.0000
  H   H6        1.0  0.13285727740652598  0.9726282470982043  0.24066496777401805  1.0000
  H   H7        1.0  0.16720634678670046  0.8233740261296736  0.4414525204783053  1.0000
  H   H8        1.0  0.24403261201613247  0.7058534827126812  0.7572588948468322  1.0000
  H   H9        1.0  0.1052033182806682  0.37231092247173647  0.21471042408848628  1.0000
  H   H10       1.0  0.10227203001158847  0.21275301966999025  0.12694677999201986  1.0000
  C   C15       1.0  0.17192862731893133  0.5792013559719151  0.18309578005781568  1.0000
  C   C16       1.0  0.0742815956475682  0.6187557508296726  0.1795505961372854  1.0000
  C   C17       1.0  0.02425414156446393  0.6390203912400025  0.06111789055268967  1.0000
  C   C18       1.0  0.07390306389262434  0.6189085297595522  0.9443276266910758  1.0000
  C   C19       1.0  0.17167387699491551  0.5793054951055261  0.9460019231048372  1.0000
  C   C20       1.0  0.22004816920441111  0.5597091094554816  0.06577456312678898  1.0000
  C   C21       1.0  0.9186418366995588  0.6818010011182063  0.06671569124559062  1.0000
  C   C22       1.0  0.8505864453919614  0.6237354906412422  0.9665417449683728  1.0000
  C   C23       1.0  0.8804346971867477  0.7828947673227361  0.955177617635738  1.0000
  H   H11       1.0  0.20955785316098408  0.5639728715399961  0.5119992417748929  1.0000
  H   H12       1.0  0.03658456084500727  0.6340262788614739  0.2696043182454717  1.0000
  H   H13       1.0  0.03725204889235445  0.6337516185350061  0.8516967826606151  1.0000
  H   H14       1.0  0.29538471054033644  0.529191345234572  0.0677824009446426  1.0000
  H   H15       1.0  0.3563316182930103  0.5044880533484446  0.7419490797048391  1.0000
  H   H16       1.0  0.8846964710444376  0.6955526323661867  0.16277097539900454  1.0000
  H   H17       1.0  0.8828544754323953  0.5586501371510197  0.8921239227369826  1.0000
  H   H18       1.0  0.7753490604543117  0.6041664056621683  0.0016945574206215207  1.0000
  H   H19       1.0  0.9308343807241705  0.8144897914199238  0.8738576381290003  1.0000
  H   H20       1.0  0.8226414423550659  0.856347705772774  0.9836861802326878  1.0000
  Zn  Zn1       1.0  0.06592223563935207  0.5791832777123558  0.5645533601172963  1.0000
  Zn  Zn2       1.0  0.27767100240794274  0.5793228448412742  0.5645437440596723  1.0000
  C   C24       1.0  0.17167961705761936  0.5735392183089633  0.8018058534607198  1.0000
  C   C25       1.0  0.1719159459845767  0.5849687258524976  0.327291375087468  1.0000
  C   C26       1.0  0.17364322181561187  0.8427094623919704  0.5589356263431455  1.0000
  C   C27       1.0  0.16995225681013837  0.3157967486541149  0.5701616743363236  1.0000
  O   O1        1.0  0.25226919938738845  0.5869509797506811  0.3756810952150409  1.0000
  O   O2        1.0  0.25203877060240565  0.5716618043726067  0.7534084628440381  1.0000
  O   O3        1.0  0.2536233225683622  0.7890201800623109  0.5572890336612726  1.0000
  O   O4        1.0  0.2506845752707183  0.3695926143190036  0.5718004269878201  1.0000
  O   O5        1.0  0.0929085905171283  0.7889135081885688  0.5572966771855947  1.0000
  O   O6        1.0  0.09132405070816874  0.5715568655681822  0.7534160342335248  1.0000
  O   O7        1.0  0.09155447972687147  0.586845990465948  0.37568710494265267  1.0000
  O   O8        1.0  0.0899698555014663  0.369487614730186  0.5718065341218648  1.0000
