data_image0
_chemical_formula_structural       NC5NC3BrH3C9H8C6H6Zn2C4O8
_chemical_formula_sum              "N2 C27 Br1 H17 Zn2 O8"
_cell_length_a       13.839083392302014
_cell_length_b       9.275152443626249
_cell_length_c       10.681121600428288
_cell_angle_alpha    85.36323627709002
_cell_angle_beta     90.00087308194136
_cell_angle_gamma    90.59950914120974

_space_group_name_H-M_alt    "P 1"
_space_group_IT_number       1

loop_
  _space_group_symop_operation_xyz
  'x, y, z'

loop_
  _atom_site_type_symbol
  _atom_site_label
  _atom_site_symmetry_multiplicity
  _atom_site_fract_x
  _atom_site_fract_y
  _atom_site_fract_z
  _atom_site_occupancy
  N   N1        1.0  0.9204976121079648  0.5794178829820021  0.6139117866177011  1.0000
  C   C1        1.0  0.848067777257539  0.5157478935613764  0.6162435229305661  1.0000
  C   C2        1.0  0.7578267829417151  0.43652041287402926  0.6191448720873005  1.0000
  C   C3        1.0  0.6707818407547315  0.5127544513848528  0.616353312968027  1.0000
  C   C4        1.0  0.582233500173279  0.4379937935525598  0.619090867311828  1.0000
  C   C5        1.0  0.49300192212938854  0.5165802784735904  0.6162130259161656  1.0000
  N   N2        1.0  0.42127133954505197  0.5797576514542782  0.6138992958525271  1.0000
  C   C6        1.0  0.5806621776349966  0.2866874551905596  0.6246314342651391  1.0000
  C   C7        1.0  0.6672612598581704  0.2103320948241656  0.6274273566360786  1.0000
  C   C8        1.0  0.7560008341684868  0.2843783092144805  0.624715981457595  1.0000
  Br  Br1       1.0  0.8726646525380225  0.17423875395347618  0.6287491717074039  1.0000
  H   H1        1.0  0.6719443922725745  0.6300040580108495  0.6120596692479319  1.0000
  H   H2        1.0  0.5125725841730643  0.22780855401982184  0.6267872415508353  1.0000
  H   H3        1.0  0.6653371843376326  0.09333180597055102  0.6317115429449702  1.0000
  C   C9        1.0  0.16803860617000524  0.15595352939924556  0.6151841430161773  1.0000
  C   C10       1.0  0.1331806698569291  0.2386692720849577  0.508794528068641  1.0000
  C   C11       1.0  0.10730477510439407  0.17321036251678248  0.4004127942511044  1.0000
  C   C12       1.0  0.11588051661097731  0.02387424107796953  0.39627474639883475  1.0000
  C   C13       1.0  0.14884889940891588  0.9394690695569491  0.501765270976237  1.0000
  C   C14       1.0  0.17373952242264568  0.003210915547339661  0.6126377941496526  1.0000
  C   C15       1.0  0.08970108247526642  0.9567069621524393  0.2840386293797834  1.0000
  C   C16       1.0  0.06778192390962245  0.9004367296681516  0.19005847870152934  1.0000
  C   C17       1.0  0.04118735763616632  0.8321507561084435  0.07603004810150238  1.0000
  H   H4        1.0  0.3068852935006139  0.23769919527159653  0.8652830128989096  1.0000
  H   H5        1.0  0.12809058479898372  0.35518330475095916  0.5084007352986746  1.0000
  H   H6        1.0  0.08146978011812966  0.2394325932422154  0.31930703459757076  1.0000
  H   H7        1.0  0.15291727891686535  0.8231617994672223  0.49827166840159176  1.0000
  H   H8        1.0  0.26412323578835295  0.7079728488865927  0.7836971383855529  1.0000
  H   H9        1.0  0.05885205649455761  0.7154409122303325  0.08772894482989302  1.0000
  H   H10       1.0  0.9625403829647272  0.8446799632930999  0.05888787956707198  1.0000
  H   H11       1.0  0.08199424485088991  0.8845269678308061  0.9949683575867229  1.0000
  C   C18       1.0  0.17088908161136884  0.5795821858988066  0.24616575650536965  1.0000
  C   C19       1.0  0.10118679581353086  0.49930260546040706  0.18498611456721337  1.0000
  C   C20       1.0  0.10118673610620244  0.4993026979208819  0.05410397433782066  1.0000
  C   C21       1.0  0.17088900612475877  0.5795822565638413  0.9816561919710745  1.0000
  C   C22       1.0  0.24053375987310058  0.6597953094280447  0.04283545480351969  1.0000
  C   C23       1.0  0.24053374735978483  0.6597952870499793  0.1737277535341024  1.0000
  H   H12       1.0  0.24137657465528917  0.660766899616428  0.53917791520308  1.0000
  H   H13       1.0  0.04655085362844291  0.4363756761324844  0.23821330359010706  1.0000
  H   H14       1.0  0.046550833904648974  0.43637574402488627  0.009709274160993871  1.0000
  H   H15       1.0  0.2951768373240107  0.7227305308615091  0.9896525760661481  1.0000
  H   H16       1.0  0.29517678829870353  0.7227304802569245  0.21807694370375041  1.0000
  H   H17       1.0  0.2413768728531667  0.6607663972098068  0.6772488909926726  1.0000
  Zn  Zn1       1.0  0.06501006946460852  0.5795120649949328  0.6139154310118611  1.0000
  Zn  Zn2       1.0  0.27675879476740883  0.5796516451860865  0.6139059641652538  1.0000
  C   C24       1.0  0.17084822017086898  0.5738351627590557  0.8426500390248577  1.0000
  C   C25       1.0  0.17092296859828252  0.5853303691661902  0.385171473491406  1.0000
  C   C26       1.0  0.17265694822766786  0.843061202710144  0.6081288354834684  1.0000
  C   C27       1.0  0.1691141566241645  0.3161025959439734  0.6196927490102051  1.0000
  O   O1        1.0  0.25129183674747235  0.5873061882875124  0.43181948824058525  1.0000
  O   O2        1.0  0.2511917276717319  0.5719641934726409  0.7959944819378022  1.0000
  O   O3        1.0  0.25265121519396483  0.789367624847134  0.6066169463420628  1.0000
  O   O4        1.0  0.24983227703918676  0.3699027671851982  0.6211969299123996  1.0000
  O   O5        1.0  0.09193651493339305  0.7892609429497595  0.6066244652613537  1.0000
  O   O6        1.0  0.0904770390690417  0.5718592448003345  0.7960019288763226  1.0000
  O   O7        1.0  0.09057714787087591  0.5872011893437004  0.4318254297076031  1.0000
  O   O8        1.0  0.08911758808920545  0.36979775792314573  0.6212029652999818  1.0000
