data_image0
_chemical_formula_structural       NC9NC3OCH8C13OH12C12NH11Zn2C4O8
_chemical_formula_sum              "N3 C42 O10 H31 Zn2"
_cell_length_a       17.728193572023454
_cell_length_b       10.299150109392551
_cell_length_c       10.299774167527174
_cell_angle_alpha    85.55710761189597
_cell_angle_beta     90.69829352168311
_cell_angle_gamma    88.43520969070386

_space_group_name_H-M_alt    "P 1"
_space_group_IT_number       1

loop_
  _space_group_symop_operation_xyz
  'x, y, z'

loop_
  _atom_site_type_symbol
  _atom_site_label
  _atom_site_symmetry_multiplicity
  _atom_site_fract_x
  _atom_site_fract_y
  _atom_site_fract_z
  _atom_site_occupancy
  N   N1        1.0  0.7104375465994478  0.38663284248027546  0.5847602187422933  1.0000
  C   C1        1.0  0.6498284467878593  0.34920535837456357  0.5977779153884148  1.0000
  C   C2        1.0  0.5743784459692227  0.30267800633816155  0.6139795875193736  1.0000
  C   C3        1.0  0.5624935291760887  0.17463164959136201  0.6234439321575032  1.0000
  C   C4        1.0  0.48578748271699695  0.1251801973513087  0.6384111572916464  1.0000
  C   C5        1.0  0.42762905206378216  0.2078621445677889  0.6558517191092561  1.0000
  C   C6        1.0  0.3495837872666496  0.16281655112470705  0.6776007163075247  1.0000
  C   C7        1.0  0.2882354260485464  0.2482824306274578  0.6421108496948555  1.0000
  C   C8        1.0  0.21396357561024326  0.20898208618705527  0.6622717178899993  1.0000
  C   C9        1.0  0.15163631984800172  0.2969844008246947  0.6247067044331664  1.0000
  N   N2        1.0  0.1015386163797077  0.3677297352806726  0.5945079846318441  1.0000
  C   C10       1.0  0.2004085666063872  0.08409630013377888  0.7189765390840428  1.0000
  C   C11       1.0  0.26085813204173297  0.998948400474835  0.7558748027850237  1.0000
  C   C12       1.0  0.33502639379196625  0.03775911308797175  0.7358436830309776  1.0000
  O   O1        1.0  0.44097088207643137  0.34165897314578286  0.6545100897269127  1.0000
  C   C13       1.0  0.5086922494038828  0.39903045677119464  0.6058827003373606  1.0000
  H   H1        1.0  0.6094283736431153  0.10516431724529098  0.6213668304456468  1.0000
  H   H2        1.0  0.4781465529019437  0.02152144511782672  0.636464466914979  1.0000
  H   H3        1.0  0.29811873853418674  0.34510357697987776  0.5976526197113088  1.0000
  H   H4        1.0  0.1431963748357703  0.05280988690595989  0.7351268425761504  1.0000
  H   H5        1.0  0.2502380180801628  0.9027863083103824  0.8007939229341559  1.0000
  H   H6        1.0  0.3805626773011771  0.9705319610997338  0.7682857795095555  1.0000
  H   H7        1.0  0.49922561198760984  0.43493370469913195  0.502348241829187  1.0000
  H   H8        1.0  0.521561302543461  0.4834397168774702  0.6624336014022778  1.0000
  C   C14       1.0  0.9060628246303921  0.9957780800771525  0.5897800858484268  1.0000
  C   C15       1.0  0.9046635251094586  0.9840809915779639  0.7265493790060646  1.0000
  C   C16       1.0  0.9038884050195245  0.8610188162371404  0.7956289957727827  1.0000
  C   C17       1.0  0.9045180506369892  0.748832573232989  0.7261823756513954  1.0000
  C   C18       1.0  0.9059205914918568  0.7585741238013876  0.5894995581088869  1.0000
  C   C19       1.0  0.9066868577072908  0.8825078185964467  0.5220972287396832  1.0000
  C   C20       1.0  0.9024015310287858  0.8496266650055657  0.9402251185289493  1.0000
  C   C21       1.0  0.8559930029219365  0.7590091071464798  0.007086585884130361  1.0000
  C   C22       1.0  0.8545688539835852  0.7483717219464857  0.1431507697397045  1.0000
  C   C23       1.0  0.9000224590066536  0.8271712870905067  0.21482556097727865  1.0000
  C   C24       1.0  0.9457089487859291  0.9187775631600862  0.14858863839590716  1.0000
  C   C25       1.0  0.9471506153579347  0.9295898986283508  0.012524602448784287  1.0000
  C   C26       1.0  0.8969053516754669  0.8181716271259525  0.36082713686278034  1.0000
  O   O2        1.0  0.8404984819776505  0.9040849564869119  0.3996599844080334  1.0000
  H   H9        1.0  0.9082137844136481  0.22517341560643245  0.33160941605421446  1.0000
  H   H10       1.0  0.9031270637518032  0.07094259152428806  0.7795171201354627  1.0000
  H   H11       1.0  0.904945054247537  0.6537032480183081  0.7790239997391306  1.0000
  H   H12       1.0  0.9077665440299264  0.8907380798186517  0.41666962847254724  1.0000
  H   H13       1.0  0.9064092643263507  0.43484805281318223  0.5369252867770664  1.0000
  H   H14       1.0  0.8199063416494133  0.6977310937262778  0.9540809700879842  1.0000
  H   H15       1.0  0.8178552370898321  0.6788296810718635  0.19260886907828312  1.0000
  H   H16       1.0  0.9804054925563299  0.9816759293967152  0.202305777004079  1.0000
  H   H17       1.0  0.9838894627496011  0.999576362832392  0.9638737365385452  1.0000
  H   H18       1.0  0.9524127940377145  0.8433284143608283  0.4023786790977923  1.0000
  H   H19       1.0  0.8846388811990041  0.7167530375039612  0.39833217739864046  1.0000
  H   H20       1.0  0.8407714758640923  0.8944196429340827  0.4962888361476359  1.0000
  C   C27       1.0  0.9060174052153702  0.3770603538420423  0.20828840181946817  1.0000
  C   C28       1.0  0.8321174207626327  0.33132629845570194  0.20928519521899042  1.0000
  C   C29       1.0  0.7946452693471929  0.30826959576038915  0.09264175787524787  1.0000
  C   C30       1.0  0.8320655321806989  0.33156012618014774  0.9739791069114111  1.0000
  C   C31       1.0  0.9059659970869373  0.3772919316670631  0.9709911819334404  1.0000
  C   C32       1.0  0.9425279897089637  0.3997864604889765  0.08865480795903768  1.0000
  C   C33       1.0  0.7164633686993521  0.25988618257914564  0.09474965596067753  1.0000
  C   C34       1.0  0.6952728349411552  0.16244854136631282  0.1895560013018327  1.0000
  C   C35       1.0  0.6216845146527564  0.11696577135690944  0.19140614275877477  1.0000
  C   C36       1.0  0.5681226846134376  0.1680841863215754  0.09874894839026925  1.0000
  C   C37       1.0  0.5888153015271798  0.2651557010576058  0.004089699401154997  1.0000
  C   C38       1.0  0.6623809424856386  0.31074083728319946  0.0019726758078919553  1.0000
  N   N3        1.0  0.49285892242604185  0.12150624866355608  0.10077795857839099  1.0000
  H   H21       1.0  0.9341895271076126  0.3944328315717052  0.5353665181726135  1.0000
  H   H22       1.0  0.8031476392598834  0.315221936207869  0.30085519549175643  1.0000
  H   H23       1.0  0.8038070175700591  0.3122487225012984  0.8839518880470923  1.0000
  H   H24       1.0  0.9995385893056745  0.43506728380191095  0.08711784503303252  1.0000
  H   H25       1.0  0.9341140865650136  0.39477345509276024  0.642394737945937  1.0000
  H   H26       1.0  0.7358747566021567  0.12021468137117153  0.2612324037668401  1.0000
  H   H27       1.0  0.606475345674846  0.04164806930765687  0.2648730375907067  1.0000
  H   H28       1.0  0.5478986512791498  0.3057393276529894  0.9321360043586968  1.0000
  H   H29       1.0  0.6767077346813529  0.3869677522416235  0.9288154918450502  1.0000
  H   H30       1.0  0.45253802129464377  0.1590143819737262  0.03209555001527021  1.0000
  H   H31       1.0  0.476901989078538  0.04917019765313224  0.17097801158852066  1.0000
  Zn  Zn1       1.0  0.8233008786947702  0.3811743456839731  0.5875807140619823  1.0000
  Zn  Zn2       1.0  0.9886753111406741  0.3731776306372756  0.5916981303922688  1.0000
  C   C39       1.0  0.9059750050489774  0.37207407111759544  0.8268259163045651  1.0000
  C   C40       1.0  0.9060029903559671  0.38227945668466673  0.3524530999696193  1.0000
  C   C41       1.0  0.9059439402939977  0.6143880899925521  0.5843775345423707  1.0000
  C   C42       1.0  0.9060339989665124  0.13996388011726157  0.5949015501361972  1.0000
  O   O3        1.0  0.9687568889111428  0.3809906573423953  0.40239862975283985  1.0000
  O   O4        1.0  0.96873647442424  0.3672925688471633  0.7800050367769947  1.0000
  O   O5        1.0  0.9687105431329646  0.5629642448870136  0.5842262315807378  1.0000
  O   O6        1.0  0.9687827637761556  0.18531899329277546  0.5981773361704865  1.0000
  O   O7        1.0  0.8431933696251116  0.5690329857587715  0.5811015068718612  1.0000
  O   O8        1.0  0.8432193006266436  0.3733628701416681  0.7768802422518313  1.0000
  O   O9        1.0  0.8432397152773886  0.3870609129004636  0.3992722739165594  1.0000
  O   O10       1.0  0.843265590134486  0.1913892395909116  0.5950510777009127  1.0000
