data_image0
_chemical_formula_structural       NC5OC5NC4H8C9H8C6NCH7Zn2C4O8
_chemical_formula_sum              "N3 C34 O9 H23 Zn2"
_cell_length_a       19.189071930511275
_cell_length_b       9.275152443626249
_cell_length_c       9.273390368590327
_cell_angle_alpha    85.97038560770253
_cell_angle_beta     89.96896470301299
_cell_angle_gamma    90.56463589314393

_space_group_name_H-M_alt    "P 1"
_space_group_IT_number       1

loop_
  _space_group_symop_operation_xyz
  'x, y, z'

loop_
  _atom_site_type_symbol
  _atom_site_label
  _atom_site_symmetry_multiplicity
  _atom_site_fract_x
  _atom_site_fract_y
  _atom_site_fract_z
  _atom_site_occupancy
  N   N1        1.0  0.6638948115476156  0.5616607162153369  0.40429466644840906  1.0000
  C   C1        1.0  0.6096862715561457  0.6126719569656831  0.3838184367726398  1.0000
  C   C2        1.0  0.542257828788087  0.676121436464795  0.35834908699593426  1.0000
  C   C3        1.0  0.5330858655035664  0.7825861812165649  0.2454272815741785  1.0000
  C   C4        1.0  0.4675867990591284  0.8443018517166934  0.22082618441171786  1.0000
  C   C5        1.0  0.4106004029128024  0.7994217854453449  0.3076432328280627  1.0000
  O   O1        1.0  0.3459499390904061  0.8651446301434557  0.2805146818993913  1.0000
  C   C6        1.0  0.28065836342725503  0.799204579172567  0.3070178151042893  1.0000
  C   C7        1.0  0.2243120015072084  0.8857458023387138  0.3403018047790516  1.0000
  C   C8        1.0  0.15821347967247162  0.8243572617926302  0.3658458545569943  1.0000
  C   C9        1.0  0.1477986270979295  0.6756121503512027  0.35688129968832616  1.0000
  C   C10       1.0  0.07975323339339431  0.6123913529658387  0.38300962313251463  1.0000
  N   N2        1.0  0.025048737996897004  0.5615640333285834  0.4040161217950293  1.0000
  C   C11       1.0  0.2036701473916633  0.5887058840423027  0.32147061719063075  1.0000
  C   C12       1.0  0.2697600200032784  0.6501387492833037  0.2959748417870782  1.0000
  C   C13       1.0  0.4202593381306566  0.6939787578301655  0.42235762098119056  1.0000
  C   C14       1.0  0.485749467639679  0.6322592521155943  0.4470268498782721  1.0000
  H   H1        1.0  0.5765108822700655  0.8179701377752514  0.17661713389302824  1.0000
  H   H2        1.0  0.4609572955808286  0.926727101730191  0.1334547987280934  1.0000
  H   H3        1.0  0.23190355786503017  0.0008723281526510362  0.34720264182697913  1.0000
  H   H4        1.0  0.11529402390511521  0.8928075565933026  0.39236040727473387  1.0000
  H   H5        1.0  0.19607293970745804  0.47373090462297496  0.3128214560843001  1.0000
  H   H6        1.0  0.3119715890295903  0.581880012028178  0.26567100982190883  1.0000
  H   H7        1.0  0.3775549085758678  0.6610422890846581  0.4938819601379825  1.0000
  H   H8        1.0  0.49239112001592567  0.5510107936522769  0.5356055192514796  1.0000
  C   C15       1.0  0.8424193320047145  0.1379962897782847  0.40562838938231804  1.0000
  C   C16       1.0  0.817283095423301  0.2194409881558708  0.28320521844616287  1.0000
  C   C17       1.0  0.7986246909733509  0.15267884130999687  0.15848462093084836  1.0000
  C   C18       1.0  0.8048095638034878  0.003284630787035784  0.15371770434688825  1.0000
  C   C19       1.0  0.8285830952776767  0.9201411514830143  0.27510712810058324  1.0000
  C   C20       1.0  0.8465308589386082  0.9852175615863789  0.4026948423536128  1.0000
  C   C21       1.0  0.7859323587796897  0.9347672303081745  0.024561338707523642  1.0000
  C   C22       1.0  0.7701271109799944  0.8773664809529561  0.9164131316470465  1.0000
  C   C23       1.0  0.7509505669756423  0.807708823015027  0.7851942491645918  1.0000
  H   H9        1.0  0.9425473270089942  0.2226803353265008  0.6933886431008676  1.0000
  H   H10       1.0  0.8136121785693576  0.33595463781169377  0.2827546962402996  1.0000
  H   H11       1.0  0.7799950077420451  0.2179314521375877  0.0651553448048281  1.0000
  H   H12       1.0  0.8315172768831398  0.8037876019132997  0.2710842681155754  1.0000
  H   H13       1.0  0.9117099971163856  0.6919932414810691  0.5995157438096336  1.0000
  H   H14       1.0  0.7636898719203052  0.6911266977398489  0.7986489424100746  1.0000
  H   H15       1.0  0.6942314941950313  0.8200968494837865  0.7655071841650924  1.0000
  H   H16       1.0  0.7803824672716011  0.8590579011002344  0.6918805303334987  1.0000
  C   C24       1.0  0.8444855616750366  0.5571084504463497  0.9809314130468292  1.0000
  C   C25       1.0  0.9084762772159285  0.5542250651266001  0.05449445842526202  1.0000
  C   C26       1.0  0.9714156858159441  0.5647519505437121  0.9789946584819159  1.0000
  C   C27       1.0  0.971964117108494  0.5785525957237581  0.8273185131031011  1.0000
  C   C28       1.0  0.9083863543927663  0.5790030872365506  0.7529539616756287  1.0000
  C   C29       1.0  0.8444646404291799  0.5661053936943117  0.8273918453583562  1.0000
  N   N3        1.0  0.03608941769822138  0.5907401235331922  0.7464385705393894  1.0000
  C   C30       1.0  0.1048956622572368  0.5908917307350026  0.8133731120000016  1.0000
  H   H17       1.0  0.7341557833435448  0.4878443846729897  0.2670961732041408  1.0000
  H   H18       1.0  0.019423670304657966  0.5634117061810089  0.04008322689086796  1.0000
  H   H19       1.0  0.681515710288993  0.4540779102908503  0.7324140670004109  1.0000
  H   H20       1.0  0.03387470743477983  0.6003011288936602  0.6335313780043155  1.0000
  H   H21       1.0  0.10986743859662296  0.6834283578777536  0.8825177444500968  1.0000
  H   H22       1.0  0.11289567258770883  0.48777364036268894  0.8792775351058593  1.0000
  H   H23       1.0  0.14578777596778192  0.6017862711091206  0.7284132867493169  1.0000
  Zn  Zn1       1.0  0.7681160232649097  0.5616290556844101  0.40422261443666807  1.0000
  Zn  Zn2       1.0  0.9208274863120919  0.5615840623551507  0.40409999842386246  1.0000
  C   C31       1.0  0.8444391367644359  0.5586579493285082  0.6674126057369719  1.0000
  C   C32       1.0  0.8445060492465528  0.5645569898656877  0.1409101409402589  1.0000
  C   C33       1.0  0.8457502433860732  0.8250136360172173  0.397506148169819  1.0000
  C   C34       1.0  0.8431948821023797  0.29819957085941406  0.41081668138896865  1.0000
  O   O2        1.0  0.9024660988851834  0.5670334196237312  0.19455395309806311  1.0000
  O   O3        1.0  0.9023835488049117  0.5561462780108042  0.6136753197490932  1.0000
  O   O4        1.0  0.9034415027091055  0.7712318796980133  0.39572394106436193  1.0000
  O   O5        1.0  0.9014080929236645  0.3519478271226604  0.41250522372581755  1.0000
  O   O6        1.0  0.7875353645404177  0.771265290933745  0.39581738916896964  1.0000
  O   O7        1.0  0.7864774190458398  0.5561814215809437  0.6137686850064004  1.0000
  O   O8        1.0  0.7865599689713677  0.5670684945069426  0.19464558574013702  1.0000
  O   O9        1.0  0.7855019629542541  0.3519828928365774  0.41259696445912547  1.0000
