data_image0
_chemical_formula_structural       NC9NC3OH6C6NCOCH9C8NH7Zn2C4O8
_chemical_formula_sum              "N4 C32 O10 H22 Zn2"
_cell_length_a       15.78231758774541
_cell_length_b       10.300268703208218
_cell_length_c       9.274266800404106
_cell_angle_alpha    85.98590923950522
_cell_angle_beta     89.63778846235708
_cell_angle_gamma    89.61162997741629

_space_group_name_H-M_alt    "P 1"
_space_group_IT_number       1

loop_
  _space_group_symop_operation_xyz
  'x, y, z'

loop_
  _atom_site_type_symbol
  _atom_site_label
  _atom_site_symmetry_multiplicity
  _atom_site_fract_x
  _atom_site_fract_y
  _atom_site_fract_z
  _atom_site_occupancy
  N   N1        1.0  0.8048493636420545  0.40247535370306164  0.41265750823368097  1.0000
  C   C1        1.0  0.7562137276426717  0.3205967416329114  0.43938543915308337  1.0000
  C   C2        1.0  0.6958308074550534  0.2189654842847368  0.4725616871244593  1.0000
  C   C3        1.0  0.7153322686512305  0.09129965215937808  0.5141482594148923  1.0000
  C   C4        1.0  0.6385232197475992  0.029428351176300264  0.5343854889174835  1.0000
  C   C5        1.0  0.5768616078713228  0.12391598762483146  0.503652485227525  1.0000
  C   C6        1.0  0.4837481488136377  0.10644735567006336  0.5094364045558544  1.0000
  C   C7        1.0  0.4301388380251412  0.21355969767455552  0.4744135143381847  1.0000
  C   C8        1.0  0.3419138845673329  0.19923589195114766  0.4791641375960019  1.0000
  C   C9        1.0  0.28761206943311496  0.30946466129238437  0.4431130850293621  1.0000
  N   N2        1.0  0.2439662933743927  0.3980743607456274  0.41413126086731933  1.0000
  C   C10       1.0  0.3066167421864345  0.07764033776045152  0.5189920330439601  1.0000
  C   C11       1.0  0.35929537898164615  0.9707494801746182  0.5539473506138164  1.0000
  C   C12       1.0  0.44733416935129644  0.984679778444064  0.5493258228472724  1.0000
  O   O1        1.0  0.6134616072981999  0.23589538838344182  0.4671217055148397  1.0000
  H   H1        1.0  0.7777385976532832  0.048245772431139144  0.5281163024757949  1.0000
  H   H2        1.0  0.6296625990707356  0.9276948979187924  0.5675416360381138  1.0000
  H   H3        1.0  0.4568645352803964  0.30818256410210854  0.44341510884289725  1.0000
  H   H4        1.0  0.23848482099423712  0.0655088027585351  0.5230132080950707  1.0000
  H   H5        1.0  0.33184018580787367  0.8767735079444189  0.5847343050948819  1.0000
  H   H6        1.0  0.4863132090488935  0.9000147534678191  0.5770220530762764  1.0000
  C   C13       1.0  0.024497913127117892  0.018926375278424112  0.41340319539373716  1.0000
  C   C14       1.0  0.03947254484935134  0.027157464650941824  0.2636097639851753  1.0000
  C   C15       1.0  0.04817268740182132  0.9139952281109557  0.1884405554825046  1.0000
  C   C16       1.0  0.03928069839695711  0.7920001097157158  0.2636450814633804  1.0000
  C   C17       1.0  0.02432575877357589  0.7816133902789459  0.4133980320772319  1.0000
  C   C18       1.0  0.017331889996205153  0.8956705577520644  0.4875751319186521  1.0000
  N   N3        1.0  0.062186472112574005  0.920842936875055  0.0347118040217691  1.0000
  C   C19       1.0  0.1122853922133058  0.01892904678644003  0.9574243352455296  1.0000
  O   O2        1.0  0.15982184236873398  0.09189446296961679  0.024149270529225435  1.0000
  C   C20       1.0  0.11306407478164265  0.028724277708622292  0.7959482716794706  1.0000
  H   H7        1.0  0.017574047712862313  0.34325567382888034  0.4700120803286627  1.0000
  H   H8        1.0  0.042693463514879654  0.12158114528748931  0.2049783423534639  1.0000
  H   H9        1.0  0.04481218917079377  0.7051867184256501  0.2046577214617724  1.0000
  H   H10       1.0  0.005805467384773393  0.8885126607536945  0.6031126734280761  1.0000
  H   H11       1.0  0.01740773214876157  0.4503039586137002  0.46979821260881494  1.0000
  H   H12       1.0  0.03911459233631563  0.8452617103400746  0.9767152925007111  1.0000
  H   H13       1.0  0.048403123046781606  0.012063193608225385  0.7548632197367215  1.0000
  H   H14       1.0  0.1342641126156513  0.1268898530779381  0.7539870043340491  1.0000
  H   H15       1.0  0.1569808953618501  0.9542925006632015  0.7564148026030955  1.0000
  C   C21       1.0  0.026361258617337624  0.3974109931518721  0.9900964550178285  1.0000
  C   C22       1.0  0.977143858045787  0.3049410904601142  0.07108131370180559  1.0000
  C   C23       1.0  0.9227969728112652  0.22262221459631304  0.003002393193437982  1.0000
  C   C24       1.0  0.915855661191683  0.23151823081200468  0.8522811816879665  1.0000
  C   C25       1.0  0.9662369596427848  0.3208718193339739  0.7699939966615954  1.0000
  C   C26       1.0  0.022462403045222287  0.4031287471653355  0.8367047507985994  1.0000
  C   C27       1.0  0.8581643544294661  0.1413950977300118  0.779006307294213  1.0000
  C   C28       1.0  0.9040738521278575  0.022212434584134796  0.7479460092172503  1.0000
  N   N4        1.0  0.9403132647576833  0.9281497371120646  0.7234294717547995  1.0000
  H   H16       1.0  0.1196351663242296  0.6822837049981116  0.06984306478805613  1.0000
  H   H17       1.0  0.9793086344142242  0.29819380951663543  0.1881026423366181  1.0000
  H   H18       1.0  0.8854205262793824  0.15259584664810522  0.06812134949748905  1.0000
  H   H19       1.0  0.962936575268927  0.32386792715576584  0.6530919065059253  1.0000
  H   H20       1.0  0.08833994925407129  0.5923713996589357  0.5405847202992948  1.0000
  H   H21       1.0  0.8339854740637009  0.18918732378790493  0.6761558378965109  1.0000
  H   H22       1.0  0.802599004271721  0.1152698976384252  0.8489815494049795  1.0000
  Zn  Zn1       1.0  0.9315689829490562  0.40120190958495505  0.4130911188789912  1.0000
  Zn  Zn2       1.0  0.11724659370029039  0.3993372855447938  0.41370943398105364  1.0000
  C   C29       1.0  0.023198666332391087  0.39687458871421577  0.6766777130973343  1.0000
  C   C30       1.0  0.025618936889311165  0.40366622554124376  0.1501229879862691  1.0000
  C   C31       1.0  0.024380403510626314  0.6374105399027008  0.4076547732870619  1.0000
  C   C32       1.0  0.02443713635050758  0.16312871528905837  0.4191460044481812  1.0000
  O   O3        1.0  0.09583349382798562  0.40505225812976003  0.20406400170800598  1.0000
  O   O4        1.0  0.09390912179851796  0.3940723671511717  0.6232055712837659  1.0000
  O   O5        1.0  0.09486243272822098  0.5883082093900904  0.40596764083271974  1.0000
  O   O6        1.0  0.09488012003473772  0.2108164250868807  0.4213018238660329  1.0000
  O   O7        1.0  0.9539353932519876  0.5897227706805361  0.4054987287754288  1.0000
  O   O8        1.0  0.952982082320232  0.39548848814298476  0.6227365823562523  1.0000
  O   O9        1.0  0.954906462397564  0.4064683221626458  0.20359327968898455  1.0000
  O   O10       1.0  0.9539530881052398  0.21223248056139446  0.42083120992144774  1.0000
