data_image0
_chemical_formula_structural       NC9NC3OH6C6SCOC6H10C7OC4NC3H8Zn2C4O8
_chemical_formula_sum              "N3 C43 O11 H24 S1 Zn2"
_cell_length_a       15.78231758774541
_cell_length_b       10.302038109246572
_cell_length_c       10.299375074045738
_cell_angle_alpha    85.54623755187913
_cell_angle_beta     90.07708282106614
_cell_angle_gamma    89.64990665055792

_space_group_name_H-M_alt    "P 1"
_space_group_IT_number       1

loop_
  _space_group_symop_operation_xyz
  'x, y, z'

loop_
  _atom_site_type_symbol
  _atom_site_label
  _atom_site_symmetry_multiplicity
  _atom_site_fract_x
  _atom_site_fract_y
  _atom_site_fract_z
  _atom_site_occupancy
  N   N1        1.0  0.7982637773356199  0.41346570110977776  0.5700225326148938  1.0000
  C   C1        1.0  0.7497136182100751  0.3314128633996156  0.5940933404980119  1.0000
  C   C2        1.0  0.6894367973643607  0.22956534692587982  0.6239714143996082  1.0000
  C   C3        1.0  0.7090711365231129  0.10162848334601571  0.6614236767325046  1.0000
  C   C4        1.0  0.6323268609224612  0.039625243284445055  0.6796490636418511  1.0000
  C   C5        1.0  0.5705671120341347  0.13431314920369442  0.6519713852473805  1.0000
  C   C6        1.0  0.47747225914626207  0.11680676839711744  0.6571803353140888  1.0000
  C   C7        1.0  0.4237508666509908  0.22414743954668756  0.6256391784401736  1.0000
  C   C8        1.0  0.3355412058677479  0.20979262432389878  0.6299175536333994  1.0000
  C   C9        1.0  0.28112400642220686  0.3202564310544054  0.5974504436389279  1.0000
  N   N2        1.0  0.23738546977970273  0.4090550803760431  0.571349788431097  1.0000
  C   C10       1.0  0.30037161491872183  0.08793737566435667  0.6657860622699268  1.0000
  C   C11       1.0  0.35316212363733296  0.9808186267125424  0.6972663659799296  1.0000
  C   C12       1.0  0.4411860350414356  0.9947790926089307  0.6931042526640443  1.0000
  O   O1        1.0  0.6070503155398856  0.24653066220055717  0.6190722751888953  1.0000
  H   H1        1.0  0.771522020661265  0.05848360221276416  0.6740030712060119  1.0000
  H   H2        1.0  0.6235722038727592  0.9376756923751104  0.7095090142340392  1.0000
  H   H3        1.0  0.450377282497501  0.31897243147176013  0.5977223969061651  1.0000
  H   H4        1.0  0.2322526351378262  0.07577959393002032  0.6694075010508003  1.0000
  H   H5        1.0  0.325805535266304  0.8866419074864468  0.7249927175217123  1.0000
  H   H6        1.0  0.48025372672739053  0.9099334967053694  0.7180471204217427  1.0000
  C   C13       1.0  0.017748418589901935  0.029982741848494806  0.57064576114947  1.0000
  C   C14       1.0  0.9453195363851508  0.035509821046360024  0.49090392519105097  1.0000
  C   C15       1.0  0.9096805281311952  0.9212975348785175  0.45074496374877887  1.0000
  C   C16       1.0  0.9455920716100212  0.800374505713584  0.49085074049673905  1.0000
  C   C17       1.0  0.017908939134608098  0.7925279925086539  0.570737824562288  1.0000
  C   C18       1.0  0.053657781997797444  0.9079887848626129  0.6101361955116018  1.0000
  S   S1        1.0  0.8177448418195045  0.9297946389214969  0.3478536822549508  1.0000
  C   C19       1.0  0.8800501683422457  0.9377185967760348  0.20161385693210623  1.0000
  O   O2        1.0  0.9004840018071978  0.8322631197766476  0.1553236182777824  1.0000
  C   C20       1.0  0.9079994391600194  0.0636287762839216  0.1361980197489776  1.0000
  C   C21       1.0  0.9679134243714937  0.06540457620833973  0.03486829905415201  1.0000
  C   C22       1.0  0.9951498479889174  0.18349048743329432  0.9732249251022292  1.0000
  C   C23       1.0  0.9629307389506058  0.30103647695449237  0.011630433939234793  1.0000
  C   C24       1.0  0.9032716758129627  0.30073121057572294  0.11160782406192228  1.0000
  C   C25       1.0  0.8757528053950562  0.18295165307983563  0.1735705303968338  1.0000
  H   H7        1.0  0.1541702358987489  0.22686979436606844  0.7211182473122619  1.0000
  H   H8        1.0  0.9164946974551972  0.12833322537732395  0.4595396864169532  1.0000
  H   H9        1.0  0.9170402411442565  0.7129218189035793  0.45899877524650035  1.0000
  H   H10       1.0  0.10949571252407986  0.9028074793277455  0.6716085077546567  1.0000
  H   H11       1.0  0.04555158851561211  0.462228862238707  0.6007892145628613  1.0000
  H   H12       1.0  0.9941264785906129  0.9755886264511675  0.00364863366493928  1.0000
  H   H13       1.0  0.04137582627713174  0.1838090648349542  0.895663765115054  1.0000
  H   H14       1.0  0.9841133793958985  0.3923462643731864  0.9638181541543229  1.0000
  H   H15       1.0  0.8781692291157095  0.3919195594469597  0.14107011805798964  1.0000
  H   H16       1.0  0.8290305673274898  0.18602619729132464  0.24999780476430145  1.0000
  C   C26       1.0  0.01785749674791126  0.4113973933055539  0.18930512246102715  1.0000
  C   C27       1.0  0.08309810238937043  0.5038307356397194  0.18106998341309244  1.0000
  C   C28       1.0  0.11534562191795183  0.551538132362158  0.05965711672836771  1.0000
  C   C29       1.0  0.08296086557815929  0.5035944353542572  0.9458442238727512  1.0000
  C   C30       1.0  0.017799804259463585  0.41111335662265835  0.9520784699834652  1.0000
  C   C31       1.0  0.985473296205406  0.3658027372809791  0.07428765963726747  1.0000
  C   C32       1.0  0.18484339734710742  0.648135635131251  0.05090130522255065  1.0000
  O   O3        1.0  0.23898948792234587  0.6429078871490939  0.9614294625681451  1.0000
  C   C33       1.0  0.19290323137028442  0.7506755917174968  0.14356448580666514  1.0000
  C   C34       1.0  0.27348788163360016  0.7964160537721002  0.1755701977432096  1.0000
  C   C35       1.0  0.28171918881830127  0.8943217138287773  0.26182357443997484  1.0000
  C   C36       1.0  0.36447336825674004  0.9398311066977629  0.29486692759726774  1.0000
  N   N3        1.0  0.43099840434562675  0.9764099157776301  0.32142629885370694  1.0000
  C   C37       1.0  0.2093739581090167  0.9478867749042175  0.315804686329757  1.0000
  C   C38       1.0  0.12907199908576394  0.9041546418541717  0.2832991170215633  1.0000
  C   C39       1.0  0.12067223377846263  0.8065205936870473  0.19732082234952397  1.0000
  H   H17       1.0  0.8956315862175622  0.23549261480618489  0.4122831987424924  1.0000
  H   H18       1.0  0.1095583277124379  0.5377580840823277  0.2693373142540952  1.0000
  H   H19       1.0  0.10818929164928326  0.5395682163302871  0.8521796651540252  1.0000
  H   H20       1.0  0.9351778376955961  0.2945427123067763  0.07983253207962826  1.0000
  H   H21       1.0  0.32980883904636094  0.7551399905987892  0.13435487628054868  1.0000
  H   H22       1.0  0.21504223734112715  0.02368966181492071  0.3825101191588991  1.0000
  H   H23       1.0  0.07317338675381685  0.946404926434444  0.3243670138135031  1.0000
  H   H24       1.0  0.05773009285077066  0.7757667720132849  0.1718234973673598  1.0000
  Zn  Zn1       1.0  0.9249848072827813  0.4121894203036347  0.5704130433696826  1.0000
  Zn  Zn2       1.0  0.11066440830696989  0.4103207602956227  0.5709698932103127  1.0000
  C   C40       1.0  0.01780775157513514  0.4059946030698891  0.8078973163653793  1.0000
  C   C41       1.0  0.017843491965243482  0.41651719530346315  0.33348575396550695  1.0000
  C   C42       1.0  0.017874603607358482  0.648392670488579  0.5655449747316144  1.0000
  C   C43       1.0  0.0177765762400006  0.174117568567608  0.5758381644628319  1.0000
  O   O4        1.0  0.08830323155137898  0.4175206365045301  0.3820854119335491  1.0000
  O   O5        1.0  0.08827453265495938  0.40357191281187726  0.7597199205601002  1.0000
  O   O6        1.0  0.08832756651997892  0.5993114268511515  0.5640186873219957  1.0000
  O   O7        1.0  0.08825013433580571  0.22178113242716546  0.5777865476035615  1.0000
  O   O8        1.0  0.9473990178906114  0.6007290488111902  0.5635963887795769  1.0000
  O   O9        1.0  0.947345984355277  0.4049910947281792  0.7592975529572645  1.0000
  O   O10       1.0  0.9473746834165735  0.4189397737566405  0.3816614828520961  1.0000
  O   O11       1.0  0.9473215861882196  0.223200260356464  0.5773627158933445  1.0000
