data_image0
_chemical_formula_structural       NC5NC3OH4C6BrH5C6NH7Zn2C4O8
_chemical_formula_sum              "N3 C24 O9 H16 Br1 Zn2"
_cell_length_a       13.84702359539666
_cell_length_b       9.276564384272257
_cell_length_c       9.274774538082514
_cell_angle_alpha    85.01137938942293
_cell_angle_beta     90.33539993850698
_cell_angle_gamma    90.58678901707502

_space_group_name_H-M_alt    "P 1"
_space_group_IT_number       1

loop_
  _space_group_symop_operation_xyz
  'x, y, z'

loop_
  _atom_site_type_symbol
  _atom_site_label
  _atom_site_symmetry_multiplicity
  _atom_site_fract_x
  _atom_site_fract_y
  _atom_site_fract_z
  _atom_site_occupancy
  N   N1        1.0  0.913770489335741  0.592145826100642  0.40635752657329516  1.0000
  C   C1        1.0  0.841821293183573  0.5829270323880131  0.469502540663453  1.0000
  C   C2        1.0  0.7522175393604776  0.571447687382648  0.548131388058523  1.0000
  C   C3        1.0  0.6643989487609868  0.5825374685519336  0.47217027734177486  1.0000
  C   C4        1.0  0.5767692688040343  0.5715765403572313  0.547248426961896  1.0000
  C   C5        1.0  0.4866768433591798  0.582994324736372  0.4690413441623224  1.0000
  N   N2        1.0  0.4142541821823995  0.5921733447655477  0.4061690844548831  1.0000
  C   C6        1.0  0.576953522811728  0.5494927603472686  0.6985133672371302  1.0000
  C   C7        1.0  0.6643920925312177  0.5383926651537712  0.7745426010678524  1.0000
  C   C8        1.0  0.7523387010068898  0.5492829420198577  0.6999497861918667  1.0000
  O   O1        1.0  0.8394980468382179  0.538163881807552  0.7761106001692215  1.0000
  H   H1        1.0  0.6642607856510313  0.5996461990906192  0.35498321738316063  1.0000
  H   H2        1.0  0.509581175915698  0.5408659331732268  0.7576033260397406  1.0000
  H   H3        1.0  0.6637511873386088  0.5213178629871471  0.8914979390499834  1.0000
  H   H4        1.0  0.8413679610019976  0.5221834626219342  0.8855690743393727  1.0000
  C   C9        1.0  0.16110884224997846  0.16867524580705773  0.4066334445099944  1.0000
  C   C10       1.0  0.1482014823548028  0.25332180454972986  0.27472894351493937  1.0000
  C   C11       1.0  0.1442866498443578  0.18946997733617144  0.14405315520861595  1.0000
  C   C12       1.0  0.1532477220617139  0.040074180879851255  0.1428005880911476  1.0000
  C   C13       1.0  0.164445743162281  0.9537515584986909  0.27271104054024375  1.0000
  C   C14       1.0  0.1669250297762157  0.01563268358791392  0.4059055663894293  1.0000
  Br  Br1       1.0  0.14859997002483216  0.9532766664732364  0.9634903020901366  1.0000
  H   H5        1.0  0.13373547035134425  0.42918412828494307  0.6412826116674859  1.0000
  H   H6        1.0  0.14342573762283473  0.36999943755682274  0.2722599316824217  1.0000
  H   H7        1.0  0.13520334985923688  0.2565646119782752  0.04352548381314891  1.0000
  H   H8        1.0  0.16890148864932303  0.8375389009266261  0.2695977311289057  1.0000
  H   H9        1.0  0.22110470335651747  0.715746763708321  0.6306678156017513  1.0000
  C   C15       1.0  0.16230912724744884  0.5958422875368825  0.9824506981271681  1.0000
  C   C16       1.0  0.2313229568126116  0.6809475516831869  0.04908830311646617  1.0000
  C   C17       1.0  0.30458774478605966  0.7541738168267393  0.9682330585192874  1.0000
  C   C18       1.0  0.3094302906916797  0.7426269396128062  0.8192637126838367  1.0000
  C   C19       1.0  0.24074811043587951  0.6606985109265542  0.7509206984469903  1.0000
  C   C20       1.0  0.1657247317724142  0.5884656309016145  0.8300883583213801  1.0000
  N   N3        1.0  0.37470885585851127  0.8390785133197154  0.037875663517787934  1.0000
  H   H10       1.0  0.016020945306130855  0.3139276502121484  0.10866763538574009  1.0000
  H   H11       1.0  0.22963157249399124  0.6877869784602513  0.1651032096318259  1.0000
  H   H12       1.0  0.3659906085100706  0.79834728794086  0.7556639033737343  1.0000
  H   H13       1.0  0.24502692017612243  0.6566873559334856  0.6347494742205481  1.0000
  H   H14       1.0  0.06425872335036485  0.4029762391151539  0.5642037072346433  1.0000
  H   H15       1.0  0.3719665968467989  0.8481217646690582  0.14923887114451562  1.0000
  H   H16       1.0  0.42986749389583834  0.893664737936366  0.9785660383683689  1.0000
  Zn  Zn1       1.0  0.05819927734433206  0.5921498343546794  0.40631147148359475  1.0000
  Zn  Zn2       1.0  0.269825336544689  0.5921574341995626  0.40622692820917594  1.0000
  C   C21       1.0  0.16503750884211166  0.5841149892870761  0.6698716300934413  1.0000
  C   C22       1.0  0.16298942906300118  0.6001940976931415  0.1426669087671295  1.0000
  C   C23       1.0  0.1657974974792491  0.8555897714415712  0.40029197527948024  1.0000
  C   C24       1.0  0.1622293566246471  0.328717582256399  0.4122466420443869  1.0000
  O   O2        1.0  0.2435286879308649  0.6016511976163892  0.19640485432552834  1.0000
  O   O3        1.0  0.2451175230686362  0.5826625731705091  0.6160691036222683  1.0000
  O   O4        1.0  0.24573014692111442  0.8018818799287419  0.3983816241831504  1.0000
  O   O5        1.0  0.24291599149953788  0.382431902113457  0.4140922255712536  1.0000
  O   O6        1.0  0.0851085501718758  0.801875366439827  0.3984461741427754  1.0000
  O   O7        1.0  0.08449593790300726  0.5826577929628838  0.6161335751398547  1.0000
  O   O8        1.0  0.08290709549226284  0.6016463822557669  0.19646759068713116  1.0000
  O   O9        1.0  0.08229439942217767  0.3824270754965764  0.4141550701475075  1.0000
