data_image0
_chemical_formula_structural       NC5NC3OH4C6NH7C7NH4Zn2C4O8
_chemical_formula_sum              "N4 C25 O9 H15 Zn2"
_cell_length_a       13.84702359539666
_cell_length_b       9.274771166103582
_cell_length_c       9.275157849593905
_cell_angle_alpha    86.00874675488272
_cell_angle_beta     89.7265770318806
_cell_angle_gamma    90.59789355945463

_space_group_name_H-M_alt    "P 1"
_space_group_IT_number       1

loop_
  _space_group_symop_operation_xyz
  'x, y, z'

loop_
  _atom_site_type_symbol
  _atom_site_label
  _atom_site_symmetry_multiplicity
  _atom_site_fract_x
  _atom_site_fract_y
  _atom_site_fract_z
  _atom_site_occupancy
  N   N1        1.0  0.9251138724694664  0.5633616328825968  0.407165142029839  1.0000
  C   C1        1.0  0.8527224062677871  0.5552975493902375  0.4702251131063919  1.0000
  C   C2        1.0  0.7625679330447739  0.5452560619090177  0.5487480640350311  1.0000
  C   C3        1.0  0.6752813769052962  0.554956769473999  0.4728892569950487  1.0000
  C   C4        1.0  0.5871258467737879  0.5453687684765355  0.5478662921539696  1.0000
  C   C5        1.0  0.49758118667572165  0.555356407993201  0.46976453777863125  1.0000
  N   N2        1.0  0.4255988851727645  0.5633857055759925  0.406976953696075  1.0000
  C   C6        1.0  0.58625063545977  0.5260511161638555  0.6989275104688177  1.0000
  C   C7        1.0  0.6731566935332197  0.5163413402205341  0.7748543492381306  1.0000
  C   C8        1.0  0.7616257529079908  0.525867565085655  0.7003619949783202  1.0000
  O   O1        1.0  0.8482516655336779  0.516141230346985  0.7764202364424173  1.0000
  H   H1        1.0  0.6759639963794357  0.569922542318577  0.35586002316564436  1.0000
  H   H2        1.0  0.5184644202674077  0.5185048458562893  0.7579378876083998  1.0000
  H   H3        1.0  0.671696628759067  0.501405258357273  0.891652173074825  1.0000
  H   H4        1.0  0.8493549284162832  0.5021624389755037  0.8857312932737009  1.0000
  C   C9        1.0  0.17239377724629312  0.13978453955629044  0.40785764058350504  1.0000
  C   C10       1.0  0.1505527578026227  0.2218505955152463  0.2789936097375523  1.0000
  C   C11       1.0  0.13773079159312163  0.15555107034242033  0.14930854837510577  1.0000
  C   C12       1.0  0.1468032546525193  0.005798968364862044  0.1475481418286606  1.0000
  C   C13       1.0  0.16686372116537368  0.9223963421191993  0.2746425144685154  1.0000
  C   C14       1.0  0.17832810281325173  0.9869518481935755  0.40629692632241454  1.0000
  N   N3        1.0  0.11648730278287145  0.24070300661420596  0.019027912155711976  1.0000
  H   H5        1.0  0.280144483537953  0.22248872447874832  0.7232071479117095  1.0000
  H   H6        1.0  0.14568507877502546  0.33843773604429317  0.2784418710952066  1.0000
  H   H7        1.0  0.13739511983097152  0.953349911460936  0.04776839916744091  1.0000
  H   H8        1.0  0.17113190632509134  0.806192767158584  0.2705136514160733  1.0000
  H   H9        1.0  0.2469819972213061  0.6919562207804895  0.6208479969679088  1.0000
  H   H10       1.0  0.10983369727126213  0.3527761369110547  0.018983607684744275  1.0000
  H   H11       1.0  0.10716306635805584  0.19229399543644443  0.9216181095883127  1.0000
  C   C15       1.0  0.17661380286900052  0.5592909308791898  0.9838865277819528  1.0000
  C   C16       1.0  0.2601809557508239  0.6063189376317801  0.053464622501105515  1.0000
  C   C17       1.0  0.3388736512308903  0.664689269238508  0.9734494864518837  1.0000
  C   C18       1.0  0.3349183087219912  0.6769595457571442  0.8227694532113818  1.0000
  C   C19       1.0  0.25332845768523193  0.6287635755407983  0.7518512218467208  1.0000
  C   C20       1.0  0.1741080891942972  0.5674453815342786  0.8302680389396566  1.0000
  C   C21       1.0  0.42340139898904083  0.7137261363521616  0.046331116475458956  1.0000
  N   N4        1.0  0.4913400599640909  0.7531385551759651  0.1049156640086053  1.0000
  H   H12       1.0  0.941301130040786  0.5106442721034015  0.09190210805993049  1.0000
  H   H13       1.0  0.3953737172471379  0.722589606031443  0.7598399810350225  1.0000
  H   H14       1.0  0.25316793894140677  0.6363472238480278  0.6347728909865955  1.0000
  H   H15       1.0  0.016643005309557205  0.5286359074364311  0.5529921404342488  1.0000
  Zn  Zn1       1.0  0.0695429826871934  0.5633647982282903  0.40711915164059764  1.0000
  Zn  Zn2       1.0  0.28116963339877077  0.563370850811042  0.40703472689853903  1.0000
  C   C22       1.0  0.17453929223922615  0.560157603962114  0.670294372709827  1.0000
  C   C23       1.0  0.17617564713351183  0.5665798665325481  0.1438596429990675  1.0000
  C   C24       1.0  0.17721840785383458  0.8267638343553176  0.4008492182349319  1.0000
  C   C25       1.0  0.17349644693831268  0.2999719038382882  0.41330487752706957  1.0000
  O   O2        1.0  0.2563397650279522  0.5690221038671917  0.1975160546823771  1.0000
  O   O3        1.0  0.2549948991330431  0.5577188682161303  0.6165734717626405  1.0000
  O   O4        1.0  0.25715723180408157  0.7730067853606692  0.39899460082370775  1.0000
  O   O5        1.0  0.25417736053524953  0.3537341959982636  0.4150948175781018  1.0000
  O   O6        1.0  0.09653518333295819  0.7730014530405014  0.39905906098226174  1.0000
  O   O7        1.0  0.09437286302475445  0.5577152681964497  0.6166378518893141  1.0000
  O   O8        1.0  0.09571773376128534  0.5690184368883362  0.1975787022740183  1.0000
  O   O9        1.0  0.09355532887249067  0.35373051974322856  0.41515757323417857  1.0000
