data_image0
_chemical_formula_structural       NC9NC3OH6C6SCH6C7F3H5Zn2C4O8
_chemical_formula_sum              "N2 C30 O9 H17 S1 F3 Zn2"
_cell_length_a       15.78231758774541
_cell_length_b       10.302809429070853
_cell_length_c       9.272291681409872
_cell_angle_alpha    86.06047360622541
_cell_angle_beta     90.4979467289142
_cell_angle_gamma    89.63144148246117

_space_group_name_H-M_alt    "P 1"
_space_group_IT_number       1

loop_
  _space_group_symop_operation_xyz
  'x, y, z'

loop_
  _atom_site_type_symbol
  _atom_site_label
  _atom_site_symmetry_multiplicity
  _atom_site_fract_x
  _atom_site_fract_y
  _atom_site_fract_z
  _atom_site_occupancy
  N   N1        1.0  0.7911703220722591  0.40041359120142334  0.4124324599109699  1.0000
  C   C1        1.0  0.7427518653527354  0.3185842206047047  0.439163791490937  1.0000
  C   C2        1.0  0.6826385208710487  0.21701408431308652  0.4723442605661252  1.0000
  C   C3        1.0  0.7024778353182314  0.08942493516245589  0.5139361222231884  1.0000
  C   C4        1.0  0.6258332530461445  0.0275908868649144  0.5341759273832758  1.0000
  C   C5        1.0  0.5639219951560457  0.12202181847990912  0.5034390157249398  1.0000
  C   C6        1.0  0.47085559005593913  0.10456378007430313  0.5092236726228434  1.0000
  C   C7        1.0  0.4169616588569995  0.21161164277289135  0.4741963251746408  1.0000
  C   C8        1.0  0.32877535860658036  0.19729653206531106  0.47894755439589054  1.0000
  C   C9        1.0  0.2741805611658297  0.3074589361844804  0.44289191356120283  1.0000
  N   N2        1.0  0.2302992525298155  0.3960152850224062  0.4139064008125113  1.0000
  C   C10       1.0  0.2938019333495985  0.07577425059355414  0.5187805200049247  1.0000
  C   C11       1.0  0.3467646447586288  0.9689477442126956  0.5537402863045024  1.0000
  C   C12       1.0  0.43476583133695146  0.982869584811995  0.549118169012774  1.0000
  O   O1        1.0  0.6002251776582903  0.23393390014292303  0.4669035885824005  1.0000
  H   H1        1.0  0.7649976028305583  0.04639685490145706  0.5279059407109812  1.0000
  H   H2        1.0  0.6172420077794497  0.9259185584605851  0.5673362919575282  1.0000
  H   H3        1.0  0.44343540057423714  0.3061774843888663  0.4431939734208725  1.0000
  H   H4        1.0  0.22570272863917176  0.06365007728098382  0.522802207927556  1.0000
  H   H5        1.0  0.3195596887702894  0.8750284074492094  0.5845311601348304  1.0000
  H   H6        1.0  0.47396995888575966  0.8982555403833768  0.5768179243016613  1.0000
  C   C13       1.0  0.010738875502780848  0.016961036433098108  0.41317569811250987  1.0000
  C   C14       1.0  0.059085172627853594  0.02314228657218731  0.28648333377688373  1.0000
  C   C15       1.0  0.08290748509749735  0.9092398979253551  0.22328115007391514  1.0000
  C   C16       1.0  0.05908506546068423  0.7879911291150706  0.28648325593802815  1.0000
  C   C17       1.0  0.010738841697688345  0.7794578980811927  0.4131756904306756  1.0000
  C   C18       1.0  0.9867799028578687  0.8945687704415941  0.47587534966150996  1.0000
  S   S1        1.0  0.1448340525956685  0.918627723649031  0.06158190505259698  1.0000
  C   C19       1.0  0.052510581190677835  0.9269138232188727  0.9422949009219493  1.0000
  H   H7        1.0  0.07828778799829172  0.11616428962406734  0.236159162998405  1.0000
  H   H8        1.0  0.07828760054052214  0.7008138971292704  0.23615905002462242  1.0000
  H   H9        1.0  0.949474365078781  0.8888948912467236  0.5735839511614416  1.0000
  H   H10       1.0  0.013707318475097758  0.8379986377915362  0.9613888910036387  1.0000
  H   H11       1.0  0.01370810979592729  0.014233587406054191  0.9613883695904013  1.0000
  H   H12       1.0  0.07390941241702692  0.9337439222138998  0.8284142342607765  1.0000
  C   C20       1.0  0.008955354416976705  0.39489471469158444  0.9898089725406859  1.0000
  C   C21       1.0  0.0659420237458872  0.31261539905826896  0.07021962853218455  1.0000
  C   C22       1.0  0.12753301240048365  0.24192353687482582  0.0016293428569460525  1.0000
  C   C23       1.0  0.13460253930075838  0.2531715943191808  0.8507607307755154  1.0000
  C   C24       1.0  0.07592753104507732  0.33116667122367427  0.7691742108082935  1.0000
  C   C25       1.0  0.012522343789254542  0.4015242410756925  0.8365423251341091  1.0000
  C   C26       1.0  0.19965447034535744  0.17389192366885764  0.7763937509375856  1.0000
  F   F1        1.0  0.27060253734149153  0.15125982142626704  0.8635510312410117  1.0000
  F   F2        1.0  0.22501577343839474  0.23860941638111258  0.6484064425245224  1.0000
  F   F3        1.0  0.16474419549116448  0.05593360175203045  0.7463175280557528  1.0000
  H   H13       1.0  0.8896335579050411  0.6584405267686413  0.06949908856753195  1.0000
  H   H14       1.0  0.06398637378035116  0.3048838201622812  0.18725975256121585  1.0000
  H   H15       1.0  0.1702175644975058  0.179166622563095  0.06698595868038093  1.0000
  H   H16       1.0  0.07834334357459743  0.3346055192901621  0.6521945259794761  1.0000
  H   H17       1.0  0.8204987671520919  0.5278196913124895  0.7225554724300909  1.0000
  Zn  Zn1       1.0  0.9178934770941767  0.39914093225160596  0.4128661260918165  1.0000
  Zn  Zn2       1.0  0.10357611866385286  0.39727743998584386  0.41348452006065206  1.0000
  C   C27       1.0  0.011846225979124995  0.3950989972837935  0.6764916157529155  1.0000
  C   C28       1.0  0.009625398023598956  0.40132099383559194  0.1498591786558039  1.0000
  C   C29       1.0  0.010710280023362941  0.6352848116982972  0.40743055371137404  1.0000
  C   C30       1.0  0.010761280942734198  0.16113362082874222  0.41892031734990165  1.0000
  O   O2        1.0  0.08031586556167086  0.40276486219242574  0.20380816719355743  1.0000
  O   O3        1.0  0.08208458524030243  0.39223979874037923  0.6230115589135548  1.0000
  O   O4        1.0  0.08116635092026508  0.5861929027146049  0.4057428444996427  1.0000
  O   O5        1.0  0.08123403606541996  0.20881176729514042  0.4210767732985201  1.0000
  O   O6        1.0  0.9402354963282046  0.5876066055795819  0.405273872635338  1.0000
  O   O7        1.0  0.9411537303204643  0.3936550608349752  0.6225425101780824  1.0000
  O   O8        1.0  0.9393850033961783  0.40418006547296437  0.20333738511026822  1.0000
  O   O9        1.0  0.9403031743518112  0.21022696213601177  0.4206060993055696  1.0000
