data_image0
_chemical_formula_structural       NC9NC3OH6C7NC2NH8C6NO2H3Zn2C4O8
_chemical_formula_sum              "N5 C31 O11 H17 Zn2"
_cell_length_a       15.78231758774541
_cell_length_b       9.273995741505848
_cell_length_c       9.273395971720356
_cell_angle_alpha    85.10796789348095
_cell_angle_beta     89.96902430017013
_cell_angle_gamma    90.21461439936415

_space_group_name_H-M_alt    "P 1"
_space_group_IT_number       1

loop_
  _space_group_symop_operation_xyz
  'x, y, z'

loop_
  _atom_site_type_symbol
  _atom_site_label
  _atom_site_symmetry_multiplicity
  _atom_site_fract_x
  _atom_site_fract_y
  _atom_site_fract_z
  _atom_site_occupancy
  N   N1        1.0  0.8091510284454203  0.5858044721473356  0.41430543656953067  1.0000
  C   C1        1.0  0.7600428658395708  0.4944066188591459  0.44084186366404526  1.0000
  C   C2        1.0  0.6990734265989893  0.3809596626074594  0.47378040940889243  1.0000
  C   C3        1.0  0.7178378253478156  0.2384529251448999  0.5150682603509631  1.0000
  C   C4        1.0  0.640671848774915  0.16938771670785746  0.5351608389456282  1.0000
  C   C5        1.0  0.5795559034178243  0.2748585332681974  0.5046489903253344  1.0000
  C   C6        1.0  0.48634190564287433  0.2553575266354544  0.5103921705883709  1.0000
  C   C7        1.0  0.43335055277702106  0.3749238316995126  0.4756197191728968  1.0000
  C   C8        1.0  0.3450431870337186  0.35893339071120045  0.48033694901054425  1.0000
  C   C9        1.0  0.29137727847439554  0.48197863511678346  0.444543608491895  1.0000
  N   N2        1.0  0.24824268439459818  0.5808911515608837  0.41576894947470877  1.0000
  C   C10       1.0  0.3090447623772594  0.2231986634143968  0.5198806427950904  1.0000
  C   C11       1.0  0.3611067353210756  0.10387950777638434  0.5545860464185444  1.0000
  C   C12       1.0  0.44922566917346934  0.11943068045709548  0.5499969926344277  1.0000
  O   O1        1.0  0.6168022204102186  0.3998562913874828  0.46838014973915576  1.0000
  H   H1        1.0  0.7799953983465464  0.19039513084666515  0.528935481222147  1.0000
  H   H2        1.0  0.6312239397839192  0.055827642916033815  0.5680789675594746  1.0000
  H   H3        1.0  0.46062195415257373  0.4805495720571582  0.4448424652918899  1.0000
  H   H4        1.0  0.24084303424305503  0.20965561548896797  0.5238735319053018  1.0000
  H   H5        1.0  0.3331095703438756  0.9989758748827462  0.5851533618809117  1.0000
  H   H6        1.0  0.4877162988404128  0.024921410625728727  0.5774952868248144  1.0000
  C   C13       1.0  0.026168257186355962  0.15989813655711282  0.413974196361116  1.0000
  C   C14       1.0  0.0412024364299772  0.24432860245757126  0.2834733589274012  1.0000
  C   C15       1.0  0.06381139832027721  0.1802671431637024  0.15841238979948558  1.0000
  C   C16       1.0  0.07232729945696771  0.0297065744986873  0.16028095437664258  1.0000
  C   C17       1.0  0.055515436196109845  0.9440308840392422  0.2895799973570534  1.0000
  C   C18       1.0  0.031233459689897995  0.006786138514287333  0.416112624866801  1.0000
  C   C19       1.0  0.09732347302684902  0.9638295256712319  0.026215761172429852  1.0000
  N   N3        1.0  0.10056871406800755  0.03944673490021301  0.8950513875820527  1.0000
  C   C20       1.0  0.12609244282436727  0.9422211678762846  0.8043448788854843  1.0000
  C   C21       1.0  0.13808902568432135  0.8103726945665424  0.8810207359062511  1.0000
  N   N4        1.0  0.12003267816086555  0.8241169208022858  0.020537996539729878  1.0000
  H   H7        1.0  0.9572072935722288  0.4231032368412078  0.6215073509207683  1.0000
  H   H8        1.0  0.03752148506934749  0.36126226033929076  0.27880510619661036  1.0000
  H   H9        1.0  0.07588805163601492  0.24935538028114945  0.06038723003942859  1.0000
  H   H10       1.0  0.05838198573533978  0.8274158277540754  0.2915901022010748  1.0000
  H   H11       1.0  0.03205132581568579  0.7062408714561094  0.6561788678778939  1.0000
  H   H12       1.0  0.13560573274236587  0.9663375003187324  0.6892818209316398  1.0000
  H   H13       1.0  0.15894972806697194  0.7114743911576964  0.8382957865838354  1.0000
  H   H14       1.0  0.12453519718012451  0.7426451607612768  0.10493593171484353  1.0000
  C   C22       1.0  0.029209502483698472  0.587766625285821  0.9911195042385265  1.0000
  C   C23       1.0  0.9538914174279285  0.6215245754975598  0.06153761856024986  1.0000
  C   C24       1.0  0.878254627703778  0.6416503963654668  0.9849043910105308  1.0000
  C   C25       1.0  0.875789167693096  0.6284295285432564  0.8355683487828336  1.0000
  C   C26       1.0  0.9510767541860111  0.5971429018918925  0.763718644580595  1.0000
  C   C27       1.0  0.028192190491658876  0.5789176979378741  0.8389673678632552  1.0000
  N   N5        1.0  0.7973576883951841  0.6481060397337824  0.7572165181723101  1.0000
  O   O2        1.0  0.7239131345124994  0.6799195953373514  0.8278239527532549  1.0000
  O   O3        1.0  0.7945883441980919  0.636252678983257  0.6241819759845697  1.0000
  H   H15       1.0  0.21363853399313038  0.42414835486160046  0.10775147466029658  1.0000
  H   H16       1.0  0.8213771812838124  0.6661990616406942  0.0431576994128764  1.0000
  H   H17       1.0  0.15397340990380914  0.4729587115811804  0.5676754285296606  1.0000
  Zn  Zn1       1.0  0.935863358774007  0.5843826552765885  0.41473609467849537  1.0000
  Zn  Zn2       1.0  0.12153024102398136  0.582301076238779  0.41535006258790186  1.0000
  C   C28       1.0  0.028348253214963922  0.5748458112902237  0.6786914368736768  1.0000
  C   C29       1.0  0.02904738477151224  0.5918397154421828  0.15139487338120228  1.0000
  C   C30       1.0  0.030278568732744912  0.8467664099757783  0.4099557823300586  1.0000
  C   C31       1.0  0.027116995444438352  0.319917384195614  0.4201306003053167  1.0000
  O   O4        1.0  0.09945255316347928  0.5924104424047955  0.20541773313594458  1.0000
  O   O5        1.0  0.09885994640387723  0.5726941305134268  0.6251341462474787  1.0000
  O   O6        1.0  0.10041774896630652  0.7922734478397453  0.4081282044991874  1.0000
  O   O7        1.0  0.09789468743708735  0.3728311372337889  0.4224235664605685  1.0000
  O   O8        1.0  0.9594988490019246  0.7938525949935684  0.40766259058872234  1.0000
  O   O9        1.0  0.9579410568898118  0.5742750109402532  0.6246684597394112  1.0000
  O   O10       1.0  0.9585336654877177  0.5939912906960648  0.20495031087178028  1.0000
  O   O11       1.0  0.9569757995663117  0.37441197408173604  0.42195625240296564  1.0000
