data_image0
_chemical_formula_structural       NC9NC3SH6C6NCOCH9C6SCNH5Zn2C4O8
_chemical_formula_sum              "N4 C31 S2 H20 O9 Zn2"
_cell_length_a       16.77567553997237
_cell_length_b       10.300268703208216
_cell_length_c       10.302218930750287
_cell_angle_alpha    85.55128926110262
_cell_angle_beta     90.41546648822373
_cell_angle_gamma    90.87327597949842

_space_group_name_H-M_alt    "P 1"
_space_group_IT_number       1

loop_
  _space_group_symop_operation_xyz
  'x, y, z'

loop_
  _atom_site_type_symbol
  _atom_site_label
  _atom_site_symmetry_multiplicity
  _atom_site_fract_x
  _atom_site_fract_y
  _atom_site_fract_z
  _atom_site_occupancy
  N   N1        1.0  0.750116673612151  0.4399678085175363  0.5748854921561326  1.0000
  C   C1        1.0  0.695367070520029  0.48928967455749267  0.6164822612733524  1.0000
  C   C2        1.0  0.6274220136735366  0.5504948493903781  0.6681006692302691  1.0000
  C   C3        1.0  0.6295601304063679  0.6385721640340851  0.7631450003017848  1.0000
  C   C4        1.0  0.5539212630421391  0.6820406082654626  0.7946554250777478  1.0000
  C   C5        1.0  0.49191298476541806  0.6280033127421787  0.7240498590220683  1.0000
  C   C6        1.0  0.4054195981233417  0.6540658982939995  0.7349019486482588  1.0000
  C   C7        1.0  0.3486057449575244  0.5744864295435005  0.6766178262622371  1.0000
  C   C8        1.0  0.2669622193064498  0.5985387405032847  0.6864132751448102  1.0000
  C   C9        1.0  0.2094811118200021  0.5162909248516838  0.626733782716876  1.0000
  N   N2        1.0  0.16328332441720883  0.45017546742357767  0.5787602884103732  1.0000
  C   C10       1.0  0.2413026250149979  0.7024840582971777  0.7543318038566629  1.0000
  C   C11       1.0  0.2970246975518702  0.7822223617073417  0.8121544497525152  1.0000
  C   C12       1.0  0.3785105611594071  0.7585332590720129  0.8026535782425581  1.0000
  S   S1        1.0  0.5324958047976017  0.5259288211644781  0.6229489036138134  1.0000
  H   H1        1.0  0.6839667279163288  0.6704280444473172  0.8089075168230246  1.0000
  H   H2        1.0  0.5456588319635367  0.7499320733673493  0.8681316612662652  1.0000
  H   H3        1.0  0.36740741685009454  0.49319627650887743  0.6241701582724417  1.0000
  H   H4        1.0  0.1783164324111362  0.7219413977426992  0.7624205911602191  1.0000
  H   H5        1.0  0.2770424245633695  0.8629010386814027  0.8642846302489301  1.0000
  H   H6        1.0  0.41994804140360337  0.8231673582021927  0.8474111380453192  1.0000
  C   C13       1.0  0.9567848092389705  0.06372609866793712  0.5768313736334874  1.0000
  C   C14       1.0  0.970198901452254  0.07346527861496523  0.4419932447014889  1.0000
  C   C15       1.0  0.9780458535583486  0.961099299970828  0.37433577072844515  1.0000
  C   C16       1.0  0.9700185545833908  0.8383012989104499  0.44202394365456477  1.0000
  C   C17       1.0  0.9566228079241402  0.8264074172974035  0.5768257241349313  1.0000
  C   C18       1.0  0.9503767959662649  0.9397318168113314  0.6435994640573  1.0000
  N   N3        1.0  0.9905381530041074  0.9694496349778728  0.23594736594405874  1.0000
  C   C19       1.0  0.037327184444869044  0.06972448124296915  0.1666220492172139  1.0000
  O   O1        1.0  0.08235451819029695  0.14382271777992497  0.22699966102936583  1.0000
  C   C20       1.0  0.03733179986641533  0.08063394518921196  0.02117854863317903  1.0000
  H   H7        1.0  0.9505254538186562  0.3874433652937216  0.627781118325769  1.0000
  H   H8        1.0  0.9729650783123107  0.16839134821933888  0.38920023815474325  1.0000
  H   H9        1.0  0.9749571171520536  0.7520696165150376  0.3889237329708488  1.0000
  H   H10       1.0  0.9400526361366289  0.931411499660391  0.7476019317526952  1.0000
  H   H11       1.0  0.9503680051793971  0.4944875547036378  0.6275875142062373  1.0000
  H   H12       1.0  0.9685686032341316  0.893491207772117  0.18357372052323218  1.0000
  H   H13       1.0  0.976307822216923  0.06209714427089798  0.9837964746442228  1.0000
  H   H14       1.0  0.05708948128102498  0.17978809744540247  0.9835053232116278  1.0000
  H   H15       1.0  0.07847438486340731  0.007930644025510693  0.9858239223775005  1.0000
  C   C21       1.0  0.9566294702903082  0.445125735003151  0.1955526906994507  1.0000
  C   C22       1.0  0.031728811204566394  0.3864732803867397  0.20003601727146167  1.0000
  C   C23       1.0  0.06906280311559265  0.3568787177590276  0.08528934157544699  1.0000
  C   C24       1.0  0.03192323488018279  0.38631724992080096  0.9648835946759902  1.0000
  C   C25       1.0  0.9567781462988234  0.4450077461558577  0.9581044165323089  1.0000
  C   C26       1.0  0.9195303725522918  0.47404190452651523  0.0740113770812636  1.0000
  S   S2        1.0  0.16506441642271152  0.28251674236775015  0.09245212459750385  1.0000
  C   C27       1.0  0.12340042327568157  0.1236973967208228  0.10432504468179869  1.0000
  N   N4        1.0  0.09606204102073757  0.01958331362740507  0.11210851383311105  1.0000
  H   H16       1.0  0.9280595566880006  0.46750841564008616  0.5211766634178208  1.0000
  H   H17       1.0  0.06148687587191869  0.3633112265563191  0.29238707024040855  1.0000
  H   H18       1.0  0.06181456290651055  0.3630481857476795  0.8769686775037354  1.0000
  H   H19       1.0  0.8616089442419025  0.5192591055516436  0.06970690746516306  1.0000
  H   H20       1.0  0.8151756283158443  0.5557593012382067  0.7380993496654709  1.0000
  Zn  Zn1       1.0  0.8693476492174516  0.44291005008338225  0.5760111804232229  1.0000
  Zn  Zn2       1.0  0.044052348175944056  0.4472226305029816  0.5776452627342199  1.0000
  C   C28       1.0  0.9567493738947529  0.4398566518374483  0.8139658370110654  1.0000
  C   C29       1.0  0.9566525309453621  0.45027771434201963  0.3396907514137486  1.0000
  C   C30       1.0  0.9566483282181697  0.6822450942814215  0.571652855783454  1.0000
  C   C31       1.0  0.9567535173523165  0.20788771020840313  0.5820038013170268  1.0000
  O   O2        1.0  0.02295979428870365  0.4536377020704652  0.3886849270697059  1.0000
  O   O3        1.0  0.023038934804537003  0.43976883325627725  0.7662115182714814  1.0000
  O   O4        1.0  0.022956445656766578  0.6355005436789782  0.5705420631559521  1.0000
  O   O5        1.0  0.02304222380063936  0.2579059994808892  0.5843542842766563  1.0000
  O   O6        1.0  0.8903577139746147  0.6322266796352181  0.5693021583163247  1.0000
  O   O7        1.0  0.8904402027738731  0.4364965294319032  0.7649715441917262  1.0000
  O   O8        1.0  0.8903610620162906  0.450365353235706  0.3874433919710587  1.0000
  O   O9        1.0  0.8904434915459202  0.2546336413427477  0.583112846522127  1.0000
