data_image0
_chemical_formula_structural       NC9NC3SH6C7OCH9C8NH7Zn2C4O8
_chemical_formula_sum              "N3 C32 S1 H22 O9 Zn2"
_cell_length_a       16.77567553997237
_cell_length_b       10.30083208314754
_cell_length_c       9.274266800404105
_cell_angle_alpha    85.96676049995207
_cell_angle_beta     89.94189520236782
_cell_angle_gamma    90.88775763152196

_space_group_name_H-M_alt    "P 1"
_space_group_IT_number       1

loop_
  _space_group_symop_operation_xyz
  'x, y, z'

loop_
  _atom_site_type_symbol
  _atom_site_label
  _atom_site_symmetry_multiplicity
  _atom_site_fract_x
  _atom_site_fract_y
  _atom_site_fract_z
  _atom_site_occupancy
  N   N1        1.0  0.7574725234480953  0.4292654846264015  0.4173083698956177  1.0000
  C   C1        1.0  0.7025224333075395  0.4788972445094377  0.4634705117269005  1.0000
  C   C2        1.0  0.6343285874527446  0.5404869738780195  0.5207541977398711  1.0000
  C   C3        1.0  0.6360047803393706  0.6292730349152397  0.6262391100753981  1.0000
  C   C4        1.0  0.5602149901960501  0.6729760638261102  0.6612056246881348  1.0000
  C   C5        1.0  0.498551634386075  0.6184119515148974  0.5828398197976485  1.0000
  C   C6        1.0  0.4120079968296137  0.6445550249948195  0.5948780417073747  1.0000
  C   C7        1.0  0.35547343023994826  0.564541627818639  0.5302009610807907  1.0000
  C   C8        1.0  0.2737846285613914  0.5886665754267999  0.5410668549718098  1.0000
  C   C9        1.0  0.2165893752246433  0.5059744635419549  0.47484163602384544  1.0000
  N   N2        1.0  0.1706213722665278  0.4395018575967621  0.4216063448583012  1.0000
  C   C10       1.0  0.2478013263746057  0.6931172447873866  0.6164309239984009  1.0000
  C   C11       1.0  0.3032464464331978  0.7732860194061393  0.6805956165492537  1.0000
  C   C12       1.0  0.3847761684388308  0.7495264743296268  0.6700566256096636  1.0000
  S   S1        1.0  0.539624509012173  0.5155837777401632  0.4706360902722964  1.0000
  H   H1        1.0  0.6901873256258907  0.6614704543752301  0.6770325532277609  1.0000
  H   H2        1.0  0.5515954271830912  0.7414154472691785  0.7427532697311726  1.0000
  H   H3        1.0  0.3745249149625187  0.48286126286542924  0.4720041203394285  1.0000
  H   H4        1.0  0.18477768325634317  0.7126345764132085  0.6254038033141571  1.0000
  H   H5        1.0  0.28301585425285103  0.8543525494378732  0.7384402121667049  1.0000
  H   H6        1.0  0.4259997272461684  0.8144936998790753  0.7197221545577837  1.0000
  C   C13       1.0  0.964072362328373  0.05304858776948061  0.41960890148526586  1.0000
  C   C14       1.0  0.9425152341233598  0.06094569291904439  0.2730134709858807  1.0000
  C   C15       1.0  0.9307282588331655  0.9477547743863004  0.19962240416193655  1.0000
  C   C16       1.0  0.9424593359280633  0.8256828133846666  0.2726320222672003  1.0000
  C   C17       1.0  0.9640291336843513  0.8157090554856611  0.41931842401812974  1.0000
  C   C18       1.0  0.9745217874352886  0.9299164841554087  0.49202684056083057  1.0000
  C   C19       1.0  0.9099528812883989  0.9574512480235436  0.041731414141235934  1.0000
  O   O1        1.0  0.9811159749721957  0.9645761253490525  0.960065757847359  1.0000
  C   C20       1.0  0.9624168928939281  0.9737441615897956  0.8115658279258118  1.0000
  H   H7        1.0  0.9348199950439409  0.15505286630307283  0.21530646014019508  1.0000
  H   H8        1.0  0.934724998262686  0.7386398467582812  0.2146631393658894  1.0000
  H   H9        1.0  0.991154369030387  0.923063179218276  0.6050834208706222  1.0000
  H   H10       1.0  0.005595190630893753  0.5896935113836201  0.6956007346526715  1.0000
  H   H11       1.0  0.8733537024516251  0.0456536514209991  0.017252347457595407  1.0000
  H   H12       1.0  0.8733871400798489  0.8705627917376371  0.016922161500126265  1.0000
  H   H13       1.0  0.018851752840356006  0.97925486986075  0.7488372668207024  1.0000
  H   H14       1.0  0.9285908860517725  0.0636121221352266  0.7811532687874182  1.0000
  H   H15       1.0  0.9286062869086552  0.8861280876324822  0.7807962176567002  1.0000
  C   C21       1.0  0.9658844260777975  0.43158500273058653  0.9961730789819465  1.0000
  C   C22       1.0  0.9195631261296409  0.3374770376219933  0.07687603217818209  1.0000
  C   C23       1.0  0.8684172557921988  0.253348839631671  0.00847845069209119  1.0000
  C   C24       1.0  0.8618878063045883  0.26201323601912296  0.857709305039978  1.0000
  C   C25       1.0  0.9093036914864648  0.35304376853696334  0.775712668455518  1.0000
  C   C26       1.0  0.9622170209799775  0.4371726388803199  0.8427541819991833  1.0000
  C   C27       1.0  0.8075940736207718  0.1699695126126244  0.7840971803966634  1.0000
  C   C28       1.0  0.8507701430159705  0.052320416280559945  0.7533764067146116  1.0000
  N   N3        1.0  0.8848518818267441  0.9594682644084467  0.7291278723892112  1.0000
  H   H16       1.0  0.05368687799517935  0.7195590859909125  0.0764130810002608  1.0000
  H   H17       1.0  0.9215988373289105  0.33080209987433384  0.19391379064429826  1.0000
  H   H18       1.0  0.8332401829685104  0.18207849667779172  0.07338325035281937  1.0000
  H   H19       1.0  0.9061989431253871  0.3559297817348786  0.6587882468458766  1.0000
  H   H20       1.0  0.024228323350045548  0.6286060555260591  0.5469870813198248  1.0000
  H   H21       1.0  0.7848524605327447  0.21695447237099091  0.6810734775829124  1.0000
  H   H22       1.0  0.7553105389074747  0.1419928434391391  0.8537249861021149  1.0000
  Zn  Zn1       1.0  0.8766983236835129  0.43221606870560403  0.41855700678734564  1.0000
  Zn  Zn2       1.0  0.051395516387036544  0.43654075823186655  0.4203695494702573  1.0000
  C   C29       1.0  0.9629087716028533  0.4309431930139616  0.6827342078857631  1.0000
  C   C30       1.0  0.9651869754498  0.4378153205576057  0.15619250901873155  1.0000
  C   C31       1.0  0.9640580636735249  0.671511980377545  0.413629217489478  1.0000
  C   C32       1.0  0.9640376235227601  0.19724497206078723  0.4252975762404321  1.0000
  O   O2        1.0  0.031249579157974987  0.44154180403099685  0.210584344194587  1.0000
  O   O3        1.0  0.029437296791851704  0.4304980664498341  0.6297176360992629  1.0000
  O   O4        1.0  0.030364464469946117  0.624760392421938  0.41241344260480317  1.0000
  O   O5        1.0  0.030322352335230722  0.24727948515922638  0.42788842898851476  1.0000
  O   O6        1.0  0.8977714281197737  0.6214773403038036  0.4110381266429735  1.0000
  O   O7        1.0  0.896844260682502  0.42721657399049323  0.6283422426859037  1.0000
  O   O8        1.0  0.8986565506117107  0.43826025488254294  0.2092072177626792  1.0000
  O   O9        1.0  0.897729323318071  0.24399792743599827  0.42651141063102505  1.0000
