data_image0
_chemical_formula_structural       NC16NOH10C12H10C12H10Zn2C4O8
_chemical_formula_sum              "N2 C44 O9 H30 Zn2"
_cell_length_a       21.30360265646646
_cell_length_b       13.024581838241813
_cell_length_c       13.024585202197207
_cell_angle_alpha    84.12653577963174
_cell_angle_beta     93.57028129254516
_cell_angle_gamma    94.35234134953745

_space_group_name_H-M_alt    "P 1"
_space_group_IT_number       1

loop_
  _space_group_symop_operation_xyz
  'x, y, z'

loop_
  _atom_site_type_symbol
  _atom_site_label
  _atom_site_symmetry_multiplicity
  _atom_site_fract_x
  _atom_site_fract_y
  _atom_site_fract_z
  _atom_site_occupancy
  N   N1        1.0  0.5864551650437789  0.1352986794083546  0.8284392529360061  1.0000
  C   C1        1.0  0.5319836232054401  0.12975538935500472  0.8184020254814623  1.0000
  C   C2        1.0  0.4642256992725486  0.12286038908182362  0.8059165872817229  1.0000
  C   C3        1.0  0.4336689907561679  0.19028821453535882  0.732043080171756  1.0000
  C   C4        1.0  0.3678559957910943  0.18371793915200463  0.7197801540106159  1.0000
  C   C5        1.0  0.3315593931253729  0.10948043544664188  0.7816132846238986  1.0000
  C   C6        1.0  0.3629211660665241  0.041764859923687954  0.8553601899744562  1.0000
  C   C7        1.0  0.4287298937464244  0.04856636333805375  0.8674586380320892  1.0000
  C   C8        1.0  0.2615319159194494  0.10109043781113926  0.769660929900363  1.0000
  C   C9        1.0  0.22568372319492008  0.18471568154976595  0.708244960562191  1.0000
  C   C10       1.0  0.15702412171922248  0.17714748835266353  0.7320240759673402  1.0000
  C   C11       1.0  0.1120548423671885  0.12240521674715787  0.6711184870153984  1.0000
  C   C12       1.0  0.04862023323781412  0.1134202591711837  0.6947824050554252  1.0000
  C   C13       1.0  0.029636048345601202  0.15843463538753383  0.7799012198537167  1.0000
  C   C14       1.0  0.07437341416517837  0.21224323541808165  0.8414776311733007  1.0000
  C   C15       1.0  0.1378177342255948  0.22127732848050516  0.8178867368744889  1.0000
  C   C16       1.0  0.9643408228321532  0.14905275973124477  0.8042896697882458  1.0000
  N   N2        1.0  0.9118469863146011  0.1415096452703936  0.8238971152443351  1.0000
  O   O1        1.0  0.23157921598682826  0.020851412941879758  0.8092352946344413  1.0000
  H   H1        1.0  0.46072256932171063  0.24784365284386764  0.6836694737640716  1.0000
  H   H2        1.0  0.34579600735806193  0.2362545873969326  0.6611183244499255  1.0000
  H   H3        1.0  0.33657459551152863  0.983769452218078  0.9042432063929818  1.0000
  H   H4        1.0  0.4519004859517616  0.995879370186631  0.9248627099627822  1.0000
  H   H5        1.0  0.2470154027094813  0.2618979342163432  0.7259989876698473  1.0000
  H   H6        1.0  0.23031433959029754  0.17915606844552906  0.6245019688001254  1.0000
  H   H7        1.0  0.12612666780460577  0.08659199688803353  0.6054885716471858  1.0000
  H   H8        1.0  0.014448925182690097  0.07120329794515243  0.64691521279021  1.0000
  H   H9        1.0  0.06025217424457608  0.24695415442030058  0.9077933477001591  1.0000
  H   H10       1.0  0.17200088184013695  0.262499053051124  0.86654564796615  1.0000
  C   C17       1.0  0.7374125350141184  0.8353053165102867  0.8339300273192953  1.0000
  C   C18       1.0  0.706452466586421  0.7719174928665041  0.7625865228654123  1.0000
  C   C19       1.0  0.7268202920078041  0.673976403134013  0.7531224526885998  1.0000
  C   C20       1.0  0.7781604993448956  0.6373839575049706  0.8152911801533502  1.0000
  C   C21       1.0  0.8095489968875883  0.7008149813196365  0.8857713042937798  1.0000
  C   C22       1.0  0.7892296454148146  0.7987885915569096  0.8953015670012945  1.0000
  C   C23       1.0  0.8004073444108196  0.534330043471125  0.8041260231423126  1.0000
  C   C24       1.0  0.8622617525050007  0.5297229395809213  0.773849558619875  1.0000
  C   C25       1.0  0.8846250344061855  0.43565219718156667  0.7557410226518938  1.0000
  C   C26       1.0  0.8455670834952456  0.3449513799687306  0.7673680802432732  1.0000
  C   C27       1.0  0.7842244483783095  0.3476952263510397  0.7983973568622627  1.0000
  C   C28       1.0  0.7608957336797398  0.4414952220569766  0.8184153572079528  1.0000
  H   H11       1.0  0.732774051629819  0.07242797252025546  0.9227532649652785  1.0000
  H   H12       1.0  0.6665683934900329  0.798039409457032  0.713892795139872  1.0000
  H   H13       1.0  0.7026263287859537  0.6266331170579956  0.6971968286344541  1.0000
  H   H14       1.0  0.8495624571054385  0.6741021721717655  0.9338232688695574  1.0000
  H   H15       1.0  0.8141571895757612  0.8458736172043009  0.9507080497155174  1.0000
  H   H16       1.0  0.8929675700805484  0.5996721977954088  0.762423332369047  1.0000
  H   H17       1.0  0.9322124623751581  0.43322120482077275  0.7318684150954282  1.0000
  H   H18       1.0  0.8629849347857689  0.2721066567157934  0.7529550968461907  1.0000
  H   H19       1.0  0.7553266374473517  0.2756997137411443  0.8085957658903937  1.0000
  H   H20       1.0  0.6087692733089779  0.35371025611539414  0.8632265154767265  1.0000
  C   C29       1.0  0.7362366530117861  0.13691584820713976  0.5241651478300251  1.0000
  C   C30       1.0  0.7255513805853113  0.21912952924731138  0.447818174274218  1.0000
  C   C31       1.0  0.7469423160004437  0.21795875520980745  0.3486790681227504  1.0000
  C   C32       1.0  0.7789564105194143  0.1342966834619568  0.323897800163399  1.0000
  C   C33       1.0  0.7902608553075224  0.05268166671595708  0.4001482315639233  1.0000
  C   C34       1.0  0.7688981734971012  0.05376642485279648  0.4993323770838063  1.0000
  C   C35       1.0  0.8025316145345991  0.1337947818292018  0.21939250741420313  1.0000
  C   C36       1.0  0.8678841688917865  0.13167961057002042  0.21088234257093913  1.0000
  C   C37       1.0  0.8933359800609738  0.13763468364401496  0.11416560842903054  1.0000
  C   C38       1.0  0.8539766458019683  0.1459985981912717  0.024637908001986505  1.0000
  C   C39       1.0  0.788909311654899  0.1471548812414072  0.031425643773573375  1.0000
  C   C40       1.0  0.7620715781533504  0.13988469173064044  0.1281801818597672  1.0000
  H   H21       1.0  0.7092961876255945  0.05586789686621209  0.776502739461937  1.0000
  H   H22       1.0  0.7007821027042428  0.2844959785596728  0.46469602255512255  1.0000
  H   H23       1.0  0.7386364775993132  0.28236822586434074  0.2911787783493797  1.0000
  H   H24       1.0  0.8153140327726119  0.9878535607794788  0.38257169772800625  1.0000
  H   H25       1.0  0.778019865583988  0.9894820461789426  0.5565003860639544  1.0000
  H   H26       1.0  0.8994089294511143  0.12724858597834032  0.27951531610091007  1.0000
  H   H27       1.0  0.9437622191436381  0.13655122384002372  0.1086318055242228  1.0000
  H   H28       1.0  0.873878659460591  0.15092664793347987  0.9496791193507754  1.0000
  H   H29       1.0  0.75938210278106  0.15184566861078364  0.9605732506217376  1.0000
  H   H30       1.0  0.608892191903537  0.17290669431260333  0.04488267282766766  1.0000
  Zn  Zn1       1.0  0.6803563719634299  0.1370882958685784  0.8271344930577409  1.0000
  Zn  Zn2       1.0  0.8179458325646202  0.13971162397044848  0.8252104920625046  1.0000
  C   C41       1.0  0.7570275529647691  0.1352116224883282  0.014113690020567062  1.0000
  C   C42       1.0  0.7412762088038803  0.1415896288120772  0.638231341699568  1.0000
  C   C43       1.0  0.7562783769476042  0.3268922167939867  0.8172497477288503  1.0000
  C   C44       1.0  0.742025292177332  0.9499077938058517  0.835095371216362  1.0000
  O   O2        1.0  0.79518183857004  0.14414922868496305  0.675782965266248  1.0000
  O   O3        1.0  0.8075490973647326  0.1346422878401441  0.9751015180953153  1.0000
  O   O4        1.0  0.8069434701192388  0.2894267837097328  0.8161324742249265  1.0000
  O   O5        1.0  0.7957874158533921  0.9893647389247437  0.8347519324928152  1.0000
  O   O6        1.0  0.7025147417219402  0.2874351800201669  0.8175930532785591  1.0000
  O   O7        1.0  0.7031204146584286  0.13265192395702896  0.9765620105749989  1.0000
  O   O8        1.0  0.6907531016254072  0.14215882275725078  0.6772422221866017  1.0000
  O   O9        1.0  0.6913586819181826  0.9873743259935457  0.8362112667081195  1.0000
