data_image0
_chemical_formula_structural       NC5NC3F3CH3C9H8C6OCH7Zn2C4O8
_chemical_formula_sum              "N2 C29 F3 H18 O9 Zn2"
_cell_length_a       13.85151926108384
_cell_length_b       9.275152443626249
_cell_length_c       9.273891588657152
_cell_angle_alpha    85.88202133130156
_cell_angle_beta     89.68013377981825
_cell_angle_gamma    90.57354708821606

_space_group_name_H-M_alt    "P 1"
_space_group_IT_number       1

loop_
  _space_group_symop_operation_xyz
  'x, y, z'

loop_
  _atom_site_type_symbol
  _atom_site_label
  _atom_site_symmetry_multiplicity
  _atom_site_fract_x
  _atom_site_fract_y
  _atom_site_fract_z
  _atom_site_occupancy
  N   N1        1.0  0.925530859396337  0.5643935281663761  0.4046865901826442  1.0000
  C   C1        1.0  0.8529106799608043  0.5558747378087869  0.46717496486682175  1.0000
  C   C2        1.0  0.7625654465681473  0.5452761977154668  0.5449194421969386  1.0000
  C   C3        1.0  0.6753790132540596  0.5538186809345631  0.4693744930732837  1.0000
  C   C4        1.0  0.5875134570497119  0.5452761843850029  0.5449194221868496  1.0000
  C   C5        1.0  0.4978914276041585  0.5558747548120935  0.46717505886418564  1.0000
  N   N2        1.0  0.4258526731408337  0.5643934912183362  0.4046866957500612  1.0000
  C   C6        1.0  0.5868177201750536  0.5271945332466457  0.6961887611207975  1.0000
  C   C7        1.0  0.6739871592067513  0.5154727131004124  0.7730066262324782  1.0000
  C   C8        1.0  0.6732831800121328  0.5013623139332652  0.9360564751032078  1.0000
  F   F1        1.0  0.7535252821943995  0.4269916701263525  0.9879083982716128  1.0000
  F   F2        1.0  0.5916564669630435  0.42699164041417254  0.9879084976586863  1.0000
  F   F3        1.0  0.6740053744077452  0.6376825391028782  0.9872996747262808  1.0000
  C   C9        1.0  0.7618880463039658  0.527194438142734  0.6961887810631773  1.0000
  H   H1        1.0  0.6759116692643041  0.5679783831437748  0.35225585326844944  1.0000
  H   H2        1.0  0.5184477224122755  0.522535328060225  0.7538498858030143  1.0000
  H   H3        1.0  0.8297644755389292  0.5225352467674281  0.7538498450473152  1.0000
  C   C10       1.0  0.17284305138704367  0.14077451372301786  0.40615814939833883  1.0000
  C   C11       1.0  0.13846667288312586  0.22240861388600977  0.28370635686926327  1.0000
  C   C12       1.0  0.11307265710624592  0.15584127413773488  0.158961962373535  1.0000
  C   C13       1.0  0.12165816514962735  0.006456346511982676  0.15419945822403158  1.0000
  C   C14       1.0  0.15415049929466743  0.923124758327833  0.2756163742873792  1.0000
  C   C15       1.0  0.17854959494990852  0.9880015795333063  0.4032275533720884  1.0000
  C   C16       1.0  0.09597719047507794  0.9381408000379009  0.025018792420840933  1.0000
  C   C17       1.0  0.07447541173873451  0.8809090721516545  0.916850238903068  1.0000
  C   C18       1.0  0.04838726224715662  0.8114564922175588  0.785606669834817  1.0000
  H   H4        1.0  0.3105063426603793  0.22502429504700738  0.69401734588085  1.0000
  H   H5        1.0  0.13338284790041932  0.33892200747069845  0.28325296850629367  1.0000
  H   H6        1.0  0.08760410923381445  0.2212384173112658  0.06561127774341902  1.0000
  H   H7        1.0  0.15822998705947192  0.8067784340393122  0.2715954748422411  1.0000
  H   H8        1.0  0.26812804085012165  0.6944793529264468  0.6001135786283665  1.0000
  H   H9        1.0  0.06598652388395387  0.6948562083030022  0.7990722059766413  1.0000
  H   H10       1.0  0.9698837931588221  0.8238609466944345  0.7658743607398155  1.0000
  H   H11       1.0  0.08950026221879952  0.8629628784838915  0.6923086242815173  1.0000
  C   C19       1.0  0.17725213969284645  0.5605675013887326  0.9814307530146138  1.0000
  C   C20       1.0  0.2567234956584181  0.621498019227928  0.04979370487184199  1.0000
  C   C21       1.0  0.33079132079093326  0.6932004566369288  0.9697359499626413  1.0000
  C   C22       1.0  0.3256533558849912  0.7043338470144858  0.8182568260515612  1.0000
  C   C23       1.0  0.24820435643608615  0.642529858509689  0.7485546979080029  1.0000
  C   C24       1.0  0.1741404768258397  0.5682085047046923  0.8279549630361318  1.0000
  O   O1        1.0  0.40761421018960065  0.7523548506007035  0.044737952828315615  1.0000
  C   C25       1.0  0.4876249676287203  0.828274090263925  0.9773989873698969  1.0000
  H   H12       1.0  0.9470239887932195  0.4719662065279453  0.0927544339282693  1.0000
  H   H13       1.0  0.3816372812518778  0.759419332115651  0.7531441567186454  1.0000
  H   H14       1.0  0.24747545921295033  0.6499646241108158  0.6314478047783996  1.0000
  H   H15       1.0  0.020566521321349507  0.5028383670660228  0.5527384101458299  1.0000
  H   H16       1.0  0.46236786434559685  0.9258935167996101  0.9126657399017146  1.0000
  H   H17       1.0  0.5273964769205206  0.7566799320161528  0.9072339693628084  1.0000
  H   H18       1.0  0.5372758749762316  0.8627550643507869  0.06212326910761323  1.0000
  Zn  Zn1       1.0  0.06991287099783562  0.5643897413960761  0.4046949417842258  1.0000
  Zn  Zn2       1.0  0.28147052163303227  0.564385617746936  0.40469013690932343  1.0000
  C   C26       1.0  0.17468780223785996  0.5610173870839114  0.6679636577015859  1.0000
  C   C27       1.0  0.1766979123357013  0.5677597934458916  0.14142155611215743  1.0000
  C   C28       1.0  0.17748707363767066  0.8278057572688927  0.39803786579528455  1.0000
  C   C29       1.0  0.17389855678980104  0.30096969079446656  0.411347430859569  1.0000
  O   O2        1.0  0.25679689205617295  0.5701657340359112  0.19511412950970586  1.0000
  O   O3        1.0  0.25515617843377814  0.5586072247328961  0.6142670263666101  1.0000
  O   O4        1.0  0.2574155377012226  0.774042221205828  0.39630003446874396  1.0000
  O   O5        1.0  0.2545374610651865  0.3547307469083383  0.41308101330228664  1.0000
  O   O6        1.0  0.09684585937147652  0.7740446122375835  0.3963040653853147  1.0000
  O   O7        1.0  0.09458651205591706  0.5586113482340043  0.6142709744361241  1.0000
  O   O8        1.0  0.09622723177376735  0.5701697916253414  0.19511634483326068  1.0000
  O   O9        1.0  0.09396780031211738  0.3547347951553186  0.4130833367251805  1.0000
