data_image0
_chemical_formula_structural       NC9NC3SH6C12H9C6NO2H3Zn2C4O8
_chemical_formula_sum              "N3 C34 S1 H18 O10 Zn2"
_cell_length_a       16.77567553997237
_cell_length_b       10.299137764757564
_cell_length_c       9.273395971720358
_cell_angle_alpha    84.94328469474783
_cell_angle_beta     90.29524247886945
_cell_angle_gamma    90.9119803869589

_space_group_name_H-M_alt    "P 1"
_space_group_IT_number       1

loop_
  _space_group_symop_operation_xyz
  'x, y, z'

loop_
  _atom_site_type_symbol
  _atom_site_label
  _atom_site_symmetry_multiplicity
  _atom_site_fract_x
  _atom_site_fract_y
  _atom_site_fract_z
  _atom_site_occupancy
  N   N1        1.0  0.7526893974060864  0.4549199146259071  0.41488587151332434  1.0000
  C   C1        1.0  0.6979025223830059  0.503819137128501  0.46111750620573355  1.0000
  C   C2        1.0  0.6299112141340641  0.5644998437448063  0.5184874275357263  1.0000
  C   C3        1.0  0.6319539759589821  0.651607746855053  0.6241314515697916  1.0000
  C   C4        1.0  0.5562894023752177  0.6947569510896549  0.6591505272084401  1.0000
  C   C5        1.0  0.4943566771884765  0.6414415211811285  0.5806663713984368  1.0000
  C   C6        1.0  0.4078590298024028  0.6673958351907181  0.5927225475180928  1.0000
  C   C7        1.0  0.3510930656452418  0.5884069816676889  0.5279482349906601  1.0000
  C   C8        1.0  0.26944591245180827  0.6123616427887757  0.5388303279157658  1.0000
  C   C9        1.0  0.21201352451718952  0.5307184670301874  0.4725055594125911  1.0000
  N   N2        1.0  0.165854900284376  0.46508905068573775  0.41919024511790637  1.0000
  C   C10       1.0  0.2437351547768306  0.715620407909613  0.6143075521197201  1.0000
  C   C11       1.0  0.2994100441057986  0.7947728914492533  0.6785686962171951  1.0000
  C   C12       1.0  0.3808992770704475  0.7711784477032692  0.6680139981883433  1.0000
  S   S1        1.0  0.5350374571802468  0.5403969509810304  0.46829350250799556  1.0000
  H   H1        1.0  0.686310292621171  0.682995276968092  0.6750016452312668  1.0000
  H   H2        1.0  0.5479531726724371  0.7618989600125622  0.7408211799053737  1.0000
  H   H3        1.0  0.36993382347931303  0.507646840294006  0.4696640277925068  1.0000
  H   H4        1.0  0.1807457992540408  0.7349970500430412  0.6232938134927948  1.0000
  H   H5        1.0  0.27938887234804055  0.8749247471277157  0.7365001310151758  1.0000
  H   H6        1.0  0.4223014411381609  0.8353595330652597  0.7177541465879955  1.0000
  C   C13       1.0  0.9591990624013305  0.07860131469071209  0.41719469252192676  1.0000
  C   C14       1.0  0.9593266871974682  0.08988781557971429  0.26518598256067727  1.0000
  C   C15       1.0  0.9594703687865854  0.9784821975150452  0.18795665426693375  1.0000
  C   C16       1.0  0.9594846526761831  0.8546402489019647  0.26479064328217383  1.0000
  C   C17       1.0  0.9593528413194001  0.841397747467105  0.4168940439740403  1.0000
  C   C18       1.0  0.9592121942222389  0.9539046575338619  0.4921596702119533  1.0000
  C   C19       1.0  0.9596044390591454  0.9914670906793953  0.027146447550118864  1.0000
  C   C20       1.0  0.007769605167601504  0.9110686527882964  0.9499860721078668  1.0000
  C   C21       1.0  0.0077967215170005105  0.9235391876735364  0.7986156034775562  1.0000
  C   C22       1.0  0.9598605031092915  0.016056353386508123  0.722696390489765  1.0000
  C   C23       1.0  0.91179717034272  0.09636050514956752  0.7979935125250597  1.0000
  C   C24       1.0  0.9115695957156683  0.08437992407918204  0.9493628682615439  1.0000
  H   H7        1.0  0.960417892353023  0.18559358989933952  0.20650352846470676  1.0000
  H   H8        1.0  0.9584967393089334  0.7684018685384889  0.2058125425679729  1.0000
  H   H9        1.0  0.9591115717644016  0.9444835371875556  0.6094074535741105  1.0000
  H   H10       1.0  0.9585971223611112  0.6090991775170346  0.7039759529982532  1.0000
  H   H11       1.0  0.04613497427954183  0.8398191963963877  0.006656869060939206  1.0000
  H   H12       1.0  0.045185577187908166  0.8616044908262546  0.7401418791653303  1.0000
  H   H13       1.0  0.9599591408572227  0.02551986123013661  0.6055260945300613  1.0000
  H   H14       1.0  0.8745071859542627  0.1677798360469569  0.7390343847687557  1.0000
  H   H15       1.0  0.873109595011941  0.14651735933109267  0.0055272681970721625  1.0000
  C   C25       1.0  0.9597304411860653  0.46400069334745897  0.9931108000545446  1.0000
  C   C26       1.0  0.8886802550699934  0.49189667622871047  0.06294554146624587  1.0000
  C   C27       1.0  0.8174044402409426  0.5075062473405212  0.9857666761613171  1.0000
  C   C28       1.0  0.815156702327559  0.4955188297881846  0.8364533494208275  1.0000
  C   C29       1.0  0.8861647340468712  0.469847275869856  0.7651796089896155  1.0000
  C   C30       1.0  0.9588214482941961  0.4559983665872762  0.8409779414097573  1.0000
  N   N3        1.0  0.7412538273232249  0.5106309105750546  0.7575392020899656  1.0000
  O   O1        1.0  0.6719770246122972  0.5368382222687043  0.8275809992013765  1.0000
  O   O2        1.0  0.7387127193090782  0.4998648419806061  0.6245214279797082  1.0000
  H   H16       1.0  0.1341496786665064  0.3227910681963873  0.1114075364506315  1.0000
  H   H17       1.0  0.7637550954740427  0.5277221021786335  0.04358219824999154  1.0000
  H   H18       1.0  0.0777452985768452  0.36476207970063945  0.5708049486019093  1.0000
  Zn  Zn1       1.0  0.871920029898526  0.4578509612019983  0.4161363676188774  1.0000
  Zn  Zn2       1.0  0.04662424798090958  0.4621472969113674  0.41795160863859904  1.0000
  C   C31       1.0  0.9589904617136826  0.45233679360830914  0.6807148992629319  1.0000
  C   C32       1.0  0.9595557241088661  0.4676631488505212  0.15337323786398094  1.0000
  C   C33       1.0  0.9593258432658752  0.697267180956239  0.41119804278307126  1.0000
  C   C34       1.0  0.9592202825452236  0.22273119886724024  0.42289017130585926  1.0000
  O   O3        1.0  0.025796426602916034  0.4705170731345485  0.2078476527484776  1.0000
  O   O4        1.0  0.025346218611707057  0.4527427128288817  0.6276177951257413  1.0000
  O   O5        1.0  0.025616148100483075  0.6505270620331599  0.4099810168229792  1.0000
  O   O6        1.0  0.025526437617341413  0.2727327327768929  0.42548432218548826  1.0000
  O   O7        1.0  0.8930177806441271  0.6472655238718297  0.40860365344494154  1.0000
  O   O8        1.0  0.8927478515488336  0.44948273583825915  0.626240354158639  1.0000
  O   O9        1.0  0.8931980614446972  0.46725706726675  0.20646847613090305  1.0000
  O   O10       1.0  0.8929280723379539  0.26947271659782834  0.4241052538066179  1.0000
