data_image0
_chemical_formula_structural       NC6NSH2C10H8C2H6Zn2C4O8
_chemical_formula_sum              "N2 C22 S1 H16 Zn2 O8"
_cell_length_a       14.474562073675546
_cell_length_b       12.925547966005277
_cell_length_c       8.961686928905088
_cell_angle_alpha    84.84932904045965
_cell_angle_beta     82.78122407664088
_cell_angle_gamma    88.12692530326781

_space_group_name_H-M_alt    "P 1"
_space_group_IT_number       1

loop_
  _space_group_symop_operation_xyz
  'x, y, z'

loop_
  _atom_site_type_symbol
  _atom_site_label
  _atom_site_symmetry_multiplicity
  _atom_site_fract_x
  _atom_site_fract_y
  _atom_site_fract_z
  _atom_site_occupancy
  N   N1        1.0  0.96742309621495  0.1318365537354671  0.32251106743891644  1.0000
  C   C1        1.0  0.8906014025253394  0.113870294695112  0.3136617171440286  1.0000
  C   C2        1.0  0.7952631045276773  0.09157581634367597  0.3026803010803225  1.0000
  C   C3        1.0  0.7640609783182614  0.0001963064572772013  0.2576700785002297  1.0000
  C   C4        1.0  0.6673449166758758  0.00019640589589786233  0.2576697175057668  1.0000
  C   C5        1.0  0.6238049686118163  0.0915759236048106  0.30267975223772003  1.0000
  C   C6        1.0  0.5254564854581912  0.11387046597543814  0.3136614387184724  1.0000
  N   N2        1.0  0.44620906045784164  0.1318366373739519  0.32251094814468484  1.0000
  S   S1        1.0  0.7040609741118288  0.1726474692336617  0.3426130805434906  1.0000
  H   H1        1.0  0.8095101876688843  0.9355737940168642  0.22583958746780078  1.0000
  H   H2        1.0  0.6306208903711489  0.9355740221033407  0.22583882159732951  1.0000
  C   C7        1.0  0.21531296279654222  0.8275081973482754  0.327423491444772  1.0000
  C   C8        1.0  0.2982563743777107  0.7847381801154099  0.37533608072723545  1.0000
  C   C9        1.0  0.31479050282133925  0.6773827260367442  0.3848869435757325  1.0000
  C   C10       1.0  0.2486289294209814  0.6107772175949353  0.3466684453762028  1.0000
  C   C11       1.0  0.26477039585598194  0.502848093990988  0.3559927877686189  1.0000
  C   C12       1.0  0.19832724455161682  0.4361569724239946  0.31761172826407225  1.0000
  C   C13       1.0  0.11532060173715086  0.47892610005047553  0.2696624083543191  1.0000
  C   C14       1.0  0.09877595622764823  0.5862754625430012  0.2601051560038763  1.0000
  C   C15       1.0  0.164939379629355  0.6528739361098986  0.2983247123380508  1.0000
  C   C16       1.0  0.1488092998058263  0.7608000011900887  0.28900700511695954  1.0000
  H   H3        1.0  0.25385553661045  0.08483037323214115  0.34968823701432905  1.0000
  H   H4        1.0  0.3506149016225421  0.8342780320362717  0.4055817335134498  1.0000
  H   H5        1.0  0.37933895098024695  0.6464804151585375  0.4221732595625953  1.0000
  H   H6        1.0  0.32907518155726545  0.4709976217896314  0.39313904169645286  1.0000
  H   H7        1.0  0.3106985990317088  0.20280616150342148  0.38252280119937154  1.0000
  H   H8        1.0  0.06297762949308972  0.4293462337525537  0.2394262903756974  1.0000
  H   H9        1.0  0.03422728130460896  0.6171755735506015  0.22281813972834552  1.0000
  H   H10       1.0  0.08450688492229073  0.7926914999885039  0.2518619606479  1.0000
  C   C17       1.0  0.2412035599012183  0.13121095147215978  0.8807919269132392  1.0000
  C   C18       1.0  0.17243661827460866  0.13245421737316665  0.7642432003455402  1.0000
  H   H11       1.0  0.12796685230969085  0.22905994806114233  0.19882526447137397  1.0000
  H   H12       1.0  0.28603061290384607  0.20043784447350443  0.8566812148327747  1.0000
  H   H13       1.0  0.2869100211528832  0.06046095015456853  0.874580854041505  1.0000
  H   H14       1.0  0.12692417405865353  0.20331421815455636  0.7703541898510653  1.0000
  H   H15       1.0  0.12741442369399597  0.06334452532940382  0.7884250197701319  1.0000
  H   H16       1.0  0.28473530541914793  0.2262257242730998  0.4215882203803956  1.0000
  Zn  Zn1       1.0  0.10558978806710304  0.1318338065569813  0.32251977132258897  1.0000
  Zn  Zn2       1.0  0.308041641510534  0.13183089036834028  0.32251472663540603  1.0000
  C   C19       1.0  0.1855482204402509  0.12809069461754197  0.5973185910387625  1.0000
  C   C20       1.0  0.22808537192164952  0.13557531008490728  0.04771603342451947  1.0000
  C   C21       1.0  0.20199973483306596  0.32110098375439317  0.3134721172945012  1.0000
  C   C22       1.0  0.21163381695121675  0.9425637759568616  0.3315626074389504  1.0000
  O   O1        1.0  0.30051233766900376  0.13703440082378715  0.10373544689237413  1.0000
  O   O2        1.0  0.2667775825627763  0.12662860814132082  0.5412949283611153  1.0000
  O   O3        1.0  0.2800612310477786  0.2824868597836798  0.3120868752064385  1.0000
  O   O4        1.0  0.2872286286731129  0.9811761564371981  0.33294338714374616  1.0000
  O   O5        1.0  0.12640273181822675  0.2824885404902353  0.3120911108080404  1.0000
  O   O6        1.0  0.11311905482454532  0.12663153384118364  0.5412990636863382  1.0000
  O   O7        1.0  0.1468539517728069  0.13703728786471858  0.10373777428647268  1.0000
  O   O8        1.0  0.1335702342015077  0.9811790362244717  0.3329458274349406  1.0000
