data_image0
_chemical_formula_structural       NC9NC3OCH8C12SCH12C12SCH12Zn2C4O8
_chemical_formula_sum              "N2 C43 O9 H32 S2 Zn2"
_cell_length_a       17.728193572023454
_cell_length_b       10.299776766347529
_cell_length_c       10.299780138516091
_cell_angle_alpha    85.57845135651907
_cell_angle_beta     90.6970768647591
_cell_angle_gamma    88.43488659094776

_space_group_name_H-M_alt    "P 1"
_space_group_IT_number       1

loop_
  _space_group_symop_operation_xyz
  'x, y, z'

loop_
  _atom_site_type_symbol
  _atom_site_label
  _atom_site_symmetry_multiplicity
  _atom_site_fract_x
  _atom_site_fract_y
  _atom_site_fract_z
  _atom_site_occupancy
  N   N1        1.0  0.7104546784538202  0.3865186449848762  0.585290304260146  1.0000
  C   C1        1.0  0.6498454236744441  0.34909444081051766  0.5982936988455134  1.0000
  C   C2        1.0  0.57439522997895  0.30257116601743617  0.6144775916040395  1.0000
  C   C3        1.0  0.5625102112052908  0.1745363056632987  0.6238930143383774  1.0000
  C   C4        1.0  0.4858039872507399  0.12508920458111317  0.638841343241491  1.0000
  C   C5        1.0  0.42764533490101514  0.2077635435935586  0.6563134894184623  1.0000
  C   C6        1.0  0.3495998093421034  0.16272184997852102  0.6780452720651502  1.0000
  C   C7        1.0  0.288251872365676  0.24818028495693767  0.6425880656225824  1.0000
  C   C8        1.0  0.213979779946334  0.20888333364617998  0.6627339145875502  1.0000
  C   C9        1.0  0.15165297349263945  0.2968779908395398  0.6252025308171134  1.0000
  N   N2        1.0  0.10155563122596624  0.3676171694529386  0.5950308460253062  1.0000
  C   C10       1.0  0.20042409186298143  0.08400838778146123  0.7193910104596639  1.0000
  C   C11       1.0  0.2608732158276811  0.9988678928642675  0.7562567351486704  1.0000
  C   C12       1.0  0.3350417180267333  0.03767525557442708  0.7362404475325073  1.0000
  O   O1        1.0  0.4409871671136461  0.3415482924261026  0.6550229770151283  1.0000
  C   C13       1.0  0.5087091220577001  0.3989149732835547  0.6064175174501532  1.0000
  H   H1        1.0  0.6094450883941909  0.10507526688251013  0.6217893733240274  1.0000
  H   H2        1.0  0.4781630921890441  0.021439834525990516  0.6368550508047874  1.0000
  H   H3        1.0  0.29813571738523637  0.3449930310476868  0.5981668361242869  1.0000
  H   H4        1.0  0.14321170622740076  0.05272467498438728  0.735529357345273  1.0000
  H   H5        1.0  0.2502525636352857  0.9027141377917076  0.8011391064958014  1.0000
  H   H6        1.0  0.3805776125718332  0.9704539239160761  0.7686568525945889  1.0000
  H   H7        1.0  0.49924374489953555  0.43481578912660607  0.5028967995669281  1.0000
  H   H8        1.0  0.5215774758154093  0.4833161622766857  0.6630006537612089  1.0000
  C   C14       1.0  0.9060799366204141  0.9956991619737939  0.590160845340469  1.0000
  C   C15       1.0  0.9106038647514123  0.9839578235405387  0.7267805919791632  1.0000
  C   C16       1.0  0.9128235174532531  0.860873285891583  0.7960104537874867  1.0000
  C   C17       1.0  0.9104595627323229  0.7486770254539971  0.7267921876431824  1.0000
  C   C18       1.0  0.9059376501641923  0.758426318752288  0.5901717418583177  1.0000
  C   C19       1.0  0.9037727250983552  0.8823752511881375  0.5226208232179093  1.0000
  C   C20       1.0  0.9176010064471251  0.84951658269535  0.9405385236745765  1.0000
  C   C21       1.0  0.8744046942429973  0.7581649707881779  0.0135016914574313  1.0000
  C   C22       1.0  0.8789235353601828  0.7477103435876026  0.1495167525486022  1.0000
  C   C23       1.0  0.9264503884994484  0.8283383772771461  0.21437053822528596  1.0000
  C   C24       1.0  0.969826681541593  0.9191078970469403  0.1427848491980075  1.0000
  C   C25       1.0  0.9654184988575996  0.9299070620350878  0.006762129621928907  1.0000
  S   S1        1.0  0.9323319024431933  0.8144590926709504  0.3888986473304069  1.0000
  C   C26       1.0  0.856497268265267  0.9341915042324653  0.4065376908762228  1.0000
  H   H9        1.0  0.9043858040093736  0.3276251920076081  0.5381032596154527  1.0000
  H   H10       1.0  0.9113710072463068  0.07076698270286186  0.7797553843197302  1.0000
  H   H11       1.0  0.913194411577743  0.6535462238436434  0.7796198600215817  1.0000
  H   H12       1.0  0.9002832228700988  0.8906646813293583  0.4172245105868522  1.0000
  H   H13       1.0  0.9041769195837451  0.4346892945709923  0.5381171630117565  1.0000
  H   H14       1.0  0.8364193564704175  0.6960231979380741  0.9654438744217573  1.0000
  H   H15       1.0  0.8451791616303025  0.677294842773509  0.20439504744809947  1.0000
  H   H16       1.0  0.0070087167760810596  0.9813448231429713  0.19241151477763363  1.0000
  H   H17       1.0  0.00011522435600231046  0.9999079906370849  0.9533205256049532  1.0000
  H   H18       1.0  0.8716083615382857  0.02977691264459459  0.3580388231098983  1.0000
  H   H19       1.0  0.8477443727642863  0.945324060290159  0.5115937147134941  1.0000
  H   H20       1.0  0.8033980325830665  0.9012131646519276  0.36309524614546196  1.0000
  C   C27       1.0  0.9060391344687365  0.3769499747994692  0.2088149170982172  1.0000
  C   C28       1.0  0.8342962833800303  0.32240626836466757  0.21052145024230431  1.0000
  C   C29       1.0  0.7979137336614649  0.29488424728514784  0.09423850558313963  1.0000
  C   C30       1.0  0.8342344584957372  0.3226346929704305  0.9752160182346832  1.0000
  C   C31       1.0  0.9059784353180466  0.3771755215457313  0.9715176747770475  1.0000
  C   C32       1.0  0.9414789935804028  0.4040285305259883  0.08883011093428594  1.0000
  C   C33       1.0  0.722014775954163  0.23719665519932231  0.0971066582275395  1.0000
  C   C34       1.0  0.6661167636261446  0.28155869904757247  0.004758806059733666  1.0000
  C   C35       1.0  0.5946972125177944  0.22723223916231383  0.00769523116631499  1.0000
  C   C36       1.0  0.5781339253808111  0.1282239315505418  0.10284355730520446  1.0000
  C   C37       1.0  0.6333604555580984  0.08309541491443787  0.1947690203473389  1.0000
  C   C38       1.0  0.7048267267019104  0.1372461887863945  0.19219616346518875  1.0000
  S   S2        1.0  0.48652380262936795  0.05838091731778494  0.10616194596624617  1.0000
  C   C39       1.0  0.4478024663313339  0.17446636561341983  0.21392869179109897  1.0000
  H   H21       1.0  0.9333874586680208  0.39768557012372185  0.5356219326897198  1.0000
  H   H22       1.0  0.8060972356268491  0.30284699154368555  0.30236809137129184  1.0000
  H   H23       1.0  0.8068730898491236  0.2999558788320765  0.885461908100099  1.0000
  H   H24       1.0  0.9968257249051621  0.4461058862162206  0.08674522554786668  1.0000
  H   H25       1.0  0.9332994470725703  0.39801728414718274  0.6426501781685108  1.0000
  H   H26       1.0  0.677323828173584  0.3593840909792794  0.9313611495085322  1.0000
  H   H27       1.0  0.5521705007442  0.26262044364492  0.9363054106732638  1.0000
  H   H28       1.0  0.6209998433238125  0.006021740300891982  0.26826282499999143  1.0000
  H   H29       1.0  0.7469477960585812  0.09982662103369268  0.26347502735520467  1.0000
  H   H30       1.0  0.4797148226372053  0.1668940341797871  0.3077374795995736  1.0000
  H   H31       1.0  0.38791948024442124  0.15223194579232938  0.2332091513552661  1.0000
  H   H32       1.0  0.4507007350609352  0.27504727992205646  0.16741148564492425  1.0000
  Zn  Zn1       1.0  0.82331797669192  0.3810606193071869  0.5881087135267669  1.0000
  Zn  Zn2       1.0  0.988692359715361  0.3730645945654258  0.5922230737860943  1.0000
  C   C40       1.0  0.9059891830404609  0.37195929016819  0.8273503838123486  1.0000
  C   C41       1.0  0.9060229589340578  0.3821674750438915  0.3529815759131445  1.0000
  C   C42       1.0  0.9059610526825456  0.6142533148726288  0.5849946333445886  1.0000
  C   C43       1.0  0.9060510331468691  0.13987189278722534  0.5953373941901605  1.0000
  O   O2        1.0  0.9687762478355351  0.3808784003341521  0.40292660178560014  1.0000
  O   O3        1.0  0.96875122456358  0.36717858728217906  0.7805276883341081  1.0000
  O   O4        1.0  0.9687276628188108  0.5628341177623137  0.5848236840950687  1.0000
  O   O5        1.0  0.9687997531552465  0.18522288184393923  0.5986305072506324  1.0000
  O   O6        1.0  0.8432105268178741  0.5689023347587354  0.5817012786513687  1.0000
  O   O7        1.0  0.843234088273587  0.3732483645608913  0.7774052136702918  1.0000
  O   O8        1.0  0.8432591117284515  0.3869481318928094  0.39980256579355333  1.0000
  O   O9        1.0  0.8432826170390597  0.1912926041427374  0.5955065686217331  1.0000
