data_image0
_chemical_formula_structural       NC9NC3SH6C8NH6C7NC2NH8Zn2C4O8
_chemical_formula_sum              "N5 C33 S1 H20 Zn2 O8"
_cell_length_a       16.77567553997237
_cell_length_b       9.274263428431858
_cell_length_c       9.27399911348925
_cell_angle_alpha    85.02669958396683
_cell_angle_beta     90.06803896743476
_cell_angle_gamma    91.51050711931723

_space_group_name_H-M_alt    "P 1"
_space_group_IT_number       1

loop_
  _space_group_symop_operation_xyz
  'x, y, z'

loop_
  _atom_site_type_symbol
  _atom_site_label
  _atom_site_symmetry_multiplicity
  _atom_site_fract_x
  _atom_site_fract_y
  _atom_site_fract_z
  _atom_site_occupancy
  N   N1        1.0  0.7654594722508997  0.6134257453202901  0.4147699160720686  1.0000
  C   C1        1.0  0.7108861046044508  0.6678199751852149  0.4609752580674184  1.0000
  C   C2        1.0  0.6431597459644987  0.7353196223199996  0.5183125520054452  1.0000
  C   C3        1.0  0.6455323657386492  0.8322554466219895  0.6239044975171841  1.0000
  C   C4        1.0  0.5700687138383732  0.8802437704468972  0.658901672221325  1.0000
  C   C5        1.0  0.5079640587405454  0.8208897479815201  0.5804525028747944  1.0000
  C   C6        1.0  0.4216067913654273  0.8497396193372556  0.592497532902758  1.0000
  C   C7        1.0  0.3644744692852593  0.7618911559038875  0.5277634626320951  1.0000
  C   C8        1.0  0.28295741203213215  0.7885178725950315  0.5386353234064436  1.0000
  C   C9        1.0  0.22514499781974331  0.6977184260720952  0.4723520085142237  1.0000
  N   N2        1.0  0.1786808862613546  0.6247286803471419  0.4190700169168078  1.0000
  C   C10       1.0  0.2577455191362668  0.9033429249242153  0.6140620111041457  1.0000
  C   C11       1.0  0.3137889285121533  0.991372280608737  0.6782829752771611  1.0000
  C   C12       1.0  0.3951496668946952  0.9651462382074225  0.6677383186777157  1.0000
  S   S1        1.0  0.5482401538839872  0.7084620016657353  0.4681377550173813  1.0000
  H   H1        1.0  0.6999797870665221  0.8672058422045142  0.6747530441252532  1.0000
  H   H2        1.0  0.5619862130102316  0.9549614613892676  0.7405321289716372  1.0000
  H   H3        1.0  0.3829234374329782  0.6720861175400168  0.4695186124922852  1.0000
  H   H4        1.0  0.1948609981377676  0.9248812710755785  0.6230399544298184  1.0000
  H   H5        1.0  0.2941564085802912  0.08050105239012241  0.7361753300481795  1.0000
  H   H6        1.0  0.4368557758403045  0.03652118057457665  0.7174464195945487  1.0000
  C   C13       1.0  0.9695498183854694  0.19542216445468252  0.41720048493333683  1.0000
  C   C14       1.0  0.959680681226962  0.27966192084304176  0.28518730108429335  1.0000
  C   C15       1.0  0.9576280696657851  0.21583402382687922  0.15444954145346568  1.0000
  C   C16       1.0  0.966041976780118  0.06630011903026989  0.15249794070253642  1.0000
  C   C17       1.0  0.9737741886659566  0.98050502116152  0.28360411538997776  1.0000
  C   C18       1.0  0.9745980676495986  0.042721328931942575  0.41665207186980524  1.0000
  C   C19       1.0  0.9626390201789043  0.9974469462685929  0.011634322418728308  1.0000
  C   C20       1.0  0.8800163904793236  0.956530259396305  0.9786958502718931  1.0000
  N   N3        1.0  0.8148040790575819  0.9242341608682991  0.952707760930704  1.0000
  H   H7        1.0  0.0372563486728581  0.27263984937356023  0.7506735936114826  1.0000
  H   H8        1.0  0.9552807946359094  0.39618107817135706  0.2827775439153466  1.0000
  H   H9        1.0  0.9502212505386493  0.28343132678972793  0.05434611364328212  1.0000
  H   H10       1.0  0.017073071482528457  0.7444179942474176  0.643093033901307  1.0000
  H   H11       1.0  0.9994588744894395  0.8992901123822943  0.017603157910979883  1.0000
  H   H12       1.0  0.9864834719129313  0.07369522205102898  0.9220600978480812  1.0000
  C   C21       1.0  0.9734730088870791  0.6228016944678026  0.9930868211476266  1.0000
  C   C22       1.0  0.03565166976035439  0.5554321285866248  0.07226740107828  1.0000
  C   C23       1.0  0.09249116570282068  0.47764738688116903  0.004263010707683094  1.0000
  C   C24       1.0  0.08867605279886326  0.464534570867575  0.8549361426951713  1.0000
  C   C25       1.0  0.02771191667412466  0.5343732991842486  0.7742078295299408  1.0000
  C   C26       1.0  0.9706748711977102  0.6153417585862343  0.8407656716294754  1.0000
  C   C27       1.0  0.14935357217223943  0.3799251739635774  0.7849332231282959  1.0000
  N   N4        1.0  0.2158230054717458  0.3313437115423037  0.8536995004319561  1.0000
  C   C28       1.0  0.2539916541646734  0.2602134832254055  0.7548248992561764  1.0000
  C   C29       1.0  0.21048109124078862  0.26621211453343285  0.6288249346982298  1.0000
  N   N5        1.0  0.1446708343455243  0.34143437147712136  0.6479185113997614  1.0000
  H   H13       1.0  0.889682885720667  0.8025770357491266  0.25866289327140857  1.0000
  H   H14       1.0  0.03928912220810288  0.5598241162601079  0.1884533606869172  1.0000
  H   H15       1.0  0.138933794737772  0.4257793137979135  0.06951173191762194  1.0000
  H   H16       1.0  0.02571634906205555  0.5304157823001058  0.6580848355000151  1.0000
  H   H17       1.0  0.8467542746016232  0.6933636299463639  0.5536562114676715  1.0000
  H   H18       1.0  0.31006846922601783  0.20684740243770636  0.7738158449236185  1.0000
  H   H19       1.0  0.22549876129108126  0.21845780028501685  0.5303227056517601  1.0000
  H   H20       1.0  0.09969327702623443  0.3620678957497867  0.5717295450031266  1.0000
  Zn  Zn1       1.0  0.8847061986432946  0.6166836029777838  0.4160191784250873  1.0000
  Zn  Zn2       1.0  0.05943404565792853  0.6214589493261695  0.41783261499965874  1.0000
  C   C30       1.0  0.9711677567498069  0.6110044581426685  0.6805399542084836  1.0000
  C   C31       1.0  0.9729744059519386  0.6271399653709795  0.1533119995022414  1.0000
  C   C32       1.0  0.9736587179360807  0.8826142183593709  0.411004177702865  1.0000
  C   C33       1.0  0.9704833745621303  0.3555284695386485  0.4228478534602633  1.0000
  O   O1        1.0  0.039115340092664715  0.6304018538100676  0.2077732268362853  1.0000
  O   O2        1.0  0.037641210453024376  0.6113658623902587  0.6274546685001422  1.0000
  O   O3        1.0  0.0396517942918142  0.8306941411025379  0.40980261171329385  1.0000
  O   O4        1.0  0.03710469704980879  0.41107358474097855  0.42542517477901076  1.0000
  O   O5        1.0  0.9070354876254098  0.8270689659350213  0.40842661801930524  1.0000
  O   O6        1.0  0.90502491436415  0.6077424212104157  0.6260785967273212  1.0000
  O   O7        1.0  0.9064990494853529  0.6267783776289697  0.20639541981300868  1.0000
  O   O8        1.0  0.9044884060205587  0.4074500972887362  0.4240474759734285  1.0000
