data_image0
_chemical_formula_structural       NC9NC3OH5C7OC3FC3H8C7OC3FC3H8Zn2C4O8
_chemical_formula_sum              "N2 C42 O11 H21 F2 Zn2"
_cell_length_a       15.78231758774541
_cell_length_b       10.29937835083307
_cell_length_c       10.299381723001552
_cell_angle_alpha    85.56710995607625
_cell_angle_beta     90.06753164669175
_cell_angle_gamma    89.65202187042593

_space_group_name_H-M_alt    "P 1"
_space_group_IT_number       1

loop_
  _space_group_symop_operation_xyz
  'x, y, z'

loop_
  _atom_site_type_symbol
  _atom_site_label
  _atom_site_symmetry_multiplicity
  _atom_site_fract_x
  _atom_site_fract_y
  _atom_site_fract_z
  _atom_site_occupancy
  N   N1        1.0  0.7984566665461132  0.41294559398463737  0.5697086550234154  1.0000
  C   C1        1.0  0.7499018736359034  0.33088525102454636  0.5938006601843435  1.0000
  C   C2        1.0  0.6896193010980558  0.22902841893539794  0.6237050450425088  1.0000
  C   C3        1.0  0.7092464240487445  0.10107980265757074  0.6611903621789939  1.0000
  C   C4        1.0  0.6324986428881683  0.03907091445518151  0.6794317649827923  1.0000
  C   C5        1.0  0.5707442302221745  0.13376754511541275  0.6517296201700791  1.0000
  C   C6        1.0  0.47764838052803443  0.1162596099235964  0.6569430890786279  1.0000
  C   C7        1.0  0.4239330556897827  0.22361006612004486  0.6253742047704727  1.0000
  C   C8        1.0  0.3357225767517868  0.2092539809180105  0.6296562849447764  1.0000
  C   C9        1.0  0.2813116224233269  0.31972785212268207  0.5971606411875969  1.0000
  N   N2        1.0  0.23757810619262393  0.40853459115965096  0.5710370485807967  1.0000
  C   C10       1.0  0.3005460907338333  0.08738766396810259  0.665556267162611  1.0000
  C   C11       1.0  0.3533305438548708  0.9802591529861542  0.6970642407615675  1.0000
  C   C12       1.0  0.4413552510793579  0.9942208531600233  0.6928985243104806  1.0000
  O   O1        1.0  0.6072337686993733  0.24599533573776355  0.6188015191375358  1.0000
  H   H1        1.0  0.6237382337356024  0.9371120078613586  0.7093180553175753  1.0000
  H   H2        1.0  0.4505648376483748  0.3184436681180531  0.5974329314474485  1.0000
  H   H3        1.0  0.2324264182547776  0.07522880526991683  0.6691808439768989  1.0000
  H   H4        1.0  0.32596862601011  0.8860738828209466  0.7248149166324367  1.0000
  H   H5        1.0  0.4804181453867596  0.9093675303170691  0.7178633081530466  1.0000
  C   C13       1.0  0.017932109570824254  0.029356004203257454  0.5704366008870507  1.0000
  C   C14       1.0  0.929530258976658  0.030247625781616657  0.5541444481733333  1.0000
  C   C15       1.0  0.8848349510988978  0.9134109781900238  0.5474041562471961  1.0000
  C   C16       1.0  0.9297374413609355  0.7950015434426075  0.5541519501412  1.0000
  C   C17       1.0  0.018110726965793845  0.7921141537350677  0.5703203479338219  1.0000
  C   C18       1.0  0.06167051909223131  0.9098168828202081  0.5787109715815937  1.0000
  C   C19       1.0  0.7915936557081271  0.9143134449862754  0.528827890729896  1.0000
  O   O2        1.0  0.758878299117576  0.8299349039234742  0.4620681516298606  1.0000
  C   C20       1.0  0.735465979838911  0.010839218248632538  0.5859968200414021  1.0000
  C   C21       1.0  0.6600003328994123  0.05157938454199918  0.521987901058621  1.0000
  C   C22       1.0  0.6061661067706088  0.14139060923556523  0.5758857604847629  1.0000
  F   F1        1.0  0.5338815835918144  0.1807911618649391  0.5129478212136862  1.0000
  C   C23       1.0  0.6267668888125921  0.19051023611790452  0.694552747867413  1.0000
  C   C24       1.0  0.7010158850130782  0.14953024822066352  0.7597725451715478  1.0000
  C   C25       1.0  0.7550252369075221  0.05978897399083084  0.7062799262845774  1.0000
  H   H6        1.0  0.18490510754317568  0.23514612077516858  0.5991861840736075  1.0000
  H   H7        1.0  0.8954393663207739  0.122099290147363  0.5452282161041795  1.0000
  H   H8        1.0  0.8954367196606596  0.7048759871182667  0.5479958990566838  1.0000
  H   H9        1.0  0.1298217765387779  0.9083255053251121  0.5912702684972371  1.0000
  H   H10       1.0  0.6431357417248877  0.014723786490193463  0.4297788280305494  1.0000
  H   H11       1.0  0.585070046004667  0.2599276184705923  0.7363054464695058  1.0000
  H   H12       1.0  0.716570504455162  0.18688622178084066  0.8521912249798695  1.0000
  H   H13       1.0  0.8114836070263022  0.027673293358272618  0.7596026994848635  1.0000
  C   C26       1.0  0.01809273322996452  0.41063320518876284  0.18901103560446697  1.0000
  C   C27       1.0  0.0448760204305609  0.27990449400548467  0.19797327638532147  1.0000
  C   C28       1.0  0.05930539481424435  0.21441554887277123  0.08528752664451167  1.0000
  C   C29       1.0  0.044795048538406525  0.28019845318170633  0.9627069365318155  1.0000
  C   C30       1.0  0.01795009009902793  0.41083689179909805  0.9517459286850607  1.0000
  C   C31       1.0  0.004967869202809449  0.4754001325860573  0.06548888503769046  1.0000
  C   C32       1.0  0.08672900818921403  0.07596611823106025  0.09463693805827833  1.0000
  O   O3        1.0  0.06061453843731356  0.0029814109812809106  0.01038789841174292  1.0000
  C   C33       1.0  0.1437839631126434  0.020317696120280008  0.1994631825415989  1.0000
  C   C34       1.0  0.13692725509418147  0.8884204554553197  0.24473579654224079  1.0000
  C   C35       1.0  0.1910961845053333  0.834667074962579  0.34246427933629753  1.0000
  F   F2        1.0  0.18356322660783744  0.707670497076501  0.38612974911601694  1.0000
  C   C36       1.0  0.25299783511256124  0.9116719512442609  0.3951075742889105  1.0000
  C   C37       1.0  0.2610744672787244  0.042351441666932166  0.3497737768305129  1.0000
  C   C38       1.0  0.20707365626829688  0.09651492017441153  0.2521167154134776  1.0000
  H   H14       1.0  0.9663045717807062  0.6567333984861173  0.37946215359193425  1.0000
  H   H15       1.0  0.05364237589726614  0.22842391456872702  0.2928132548636484  1.0000
  H   H16       1.0  0.05528533077203976  0.22954157659888394  0.8757206049293949  1.0000
  H   H17       1.0  0.9843195528068321  0.5761819303548652  0.05777560870216569  1.0000
  H   H18       1.0  0.08918054799677089  0.8273813517704163  0.20522783269490508  1.0000
  H   H19       1.0  0.2949577657211928  0.8700403896415225  0.4706575005067679  1.0000
  H   H20       1.0  0.3094856275053972  0.10163606358919973  0.38992294231906777  1.0000
  H   H21       1.0  0.21542790292028502  0.19739394179479272  0.2168658038848186  1.0000
  Zn  Zn1       1.0  0.925177622624269  0.411669206739198  0.5700994946754143  1.0000
  Zn  Zn2       1.0  0.11085711715440122  0.40980038134945485  0.5706568268223744  1.0000
  C   C39       1.0  0.017973973314315612  0.40562455354019056  0.8075734671203707  1.0000
  C   C40       1.0  0.01806279443859915  0.41584665285961986  0.33318298767965837  1.0000
  C   C41       1.0  0.018073583882420866  0.6479352670819847  0.5651671526857165  1.0000
  C   C42       1.0  0.017963120132686198  0.17353437960950371  0.5755893714003242  1.0000
  O   O4        1.0  0.08851714587715209  0.4168814580611339  0.3817799173319494  1.0000
  O   O5        1.0  0.08844606173353053  0.403170373248295  0.7593991659765829  1.0000
  O   O6        1.0  0.088525548380711  0.5988393487916737  0.5636543489486547  1.0000
  O   O7        1.0  0.08843759589052053  0.22121249242004115  0.5775246367939915  1.0000
  O   O8        1.0  0.9475970805248527  0.600257096307762  0.5632316845067757  1.0000
  O   O9        1.0  0.9475175942521831  0.40458968111185584  0.7589764320516703  1.0000
  O   O10       1.0  0.9475886787335046  0.41830072024932896  0.3813556220194734  1.0000
  O   O11       1.0  0.9475091287230267  0.2226317453451001  0.5771004388503806  1.0000
