data_image0
_chemical_formula_structural       NC9NC3OH6C7OH6C6BrH5Zn2C4O8
_chemical_formula_sum              "N2 C29 O10 H17 Br1 Zn2"
_cell_length_a       15.78231758774541
_cell_length_b       9.274078303013075
_cell_length_c       10.302972455390005
_cell_angle_alpha    85.73623788158189
_cell_angle_beta     90.08385913268748
_cell_angle_gamma    89.04960325712263

_space_group_name_H-M_alt    "P 1"
_space_group_IT_number       1

loop_
  _space_group_symop_operation_xyz
  'x, y, z'

loop_
  _atom_site_type_symbol
  _atom_site_label
  _atom_site_symmetry_multiplicity
  _atom_site_fract_x
  _atom_site_fract_y
  _atom_site_fract_z
  _atom_site_occupancy
  N   N1        1.0  0.7884985442406357  0.569383925896614  0.5746993448812328  1.0000
  C   C1        1.0  0.7405109549771343  0.478255525984218  0.5985208661887835  1.0000
  C   C2        1.0  0.6809324201016933  0.36514303093321754  0.6280895147231322  1.0000
  C   C3        1.0  0.7014439129570408  0.22305550936197327  0.6651531189376578  1.0000
  C   C4        1.0  0.6251247460161323  0.15419433426395956  0.683190118738347  1.0000
  C   C5        1.0  0.5627158061267106  0.25935536200014386  0.6558000762347163  1.0000
  C   C6        1.0  0.4697409856770286  0.23991269521530165  0.6609558121462628  1.0000
  C   C7        1.0  0.41528364132322837  0.35912590119523236  0.6297407889667708  1.0000
  C   C8        1.0  0.3271724048034532  0.3431833805586239  0.6339755271227797  1.0000
  C   C9        1.0  0.2719978399742679  0.465865156607828  0.6018440429677712  1.0000
  N   N2        1.0  0.2276504791793068  0.5644854764497401  0.5760131881197617  1.0000
  C   C10       1.0  0.2928382854912762  0.20785022180915536  0.6694737788556384  1.0000
  C   C11       1.0  0.3463632248383422  0.08888348578183326  0.7006286214970789  1.0000
  C   C12       1.0  0.43429141575512664  0.10438803980383721  0.6965089469196043  1.0000
  O   O1        1.0  0.5984296265349839  0.383984849419825  0.6232418889219427  1.0000
  H   H1        1.0  0.7641906009412742  0.17513849976711413  0.6776014631649471  1.0000
  H   H2        1.0  0.6170690709902287  0.040968499244894215  0.7127403520754951  1.0000
  H   H3        1.0  0.4412599117376973  0.46443909524136767  0.6021121347398709  1.0000
  H   H4        1.0  0.22480266578615904  0.19434773530617772  0.6730582601356957  1.0000
  H   H5        1.0  0.31965233719982544  0.984290267385273  0.7280688153594942  1.0000
  H   H6        1.0  0.4739408288441652  0.010158006834210174  0.7211940234736103  1.0000
  C   C13       1.0  0.010604237053575492  0.14343904962499868  0.5741996544992332  1.0000
  C   C14       1.0  0.9942198155307648  0.2270860979700204  0.45695538405427905  1.0000
  C   C15       1.0  0.9705139675968101  0.16224829922352524  0.344123735569942  1.0000
  C   C16       1.0  0.9629673743147948  0.011688829089611982  0.34846374559413734  1.0000
  C   C17       1.0  0.9803053571964722  0.9269725455743164  0.46329468309735267  1.0000
  C   C18       1.0  0.005552952436832953  0.9904191641827536  0.5765241175232401  1.0000
  C   C19       1.0  0.9530566744901543  0.2533607179367434  0.2232455089772241  1.0000
  O   O2        1.0  0.9312784666115667  0.1983066018050139  0.12038580375475673  1.0000
  H   H7        1.0  0.007997868889196178  0.22009594065631366  0.8938372442267771  1.0000
  H   H8        1.0  0.9980100521599408  0.34390943320874157  0.45416659945524734  1.0000
  H   H9        1.0  0.9444314383375957  0.959044027523637  0.26270106548730165  1.0000
  H   H10       1.0  0.9758883904948482  0.8105846666913242  0.4625869857791687  1.0000
  H   H11       1.0  0.007507609651359322  0.691507036180728  0.7912364140639627  1.0000
  H   H12       1.0  0.9589063664772834  0.3696100527167874  0.22189881955400703  1.0000
  C   C20       1.0  0.008078560925980803  0.5669291075246232  0.19411931704145657  1.0000
  C   C21       1.0  0.03365440610109882  0.4207399759481834  0.2027438464492164  1.0000
  C   C22       1.0  0.04634145250991417  0.34822227318675525  0.09008424360993808  1.0000
  C   C23       1.0  0.03365454925755726  0.4207399180671631  0.9676614561206986  1.0000
  C   C24       1.0  0.00807860099450752  0.5669291110240425  0.9566043992467274  1.0000
  C   C25       1.0  0.9954141415047388  0.6393176947057071  0.0704889915494511  1.0000
  Br  Br1       1.0  0.08112883468626458  0.14937978813476896  0.10346948151887614  1.0000
  H   H13       1.0  0.9984523927056113  0.6219535742956953  0.5181746716320961  1.0000
  H   H14       1.0  0.04383555565657324  0.3625447592292743  0.296660586518805  1.0000
  H   H15       1.0  0.0438358902027458  0.3625448038065468  0.8815796850237879  1.0000
  H   H16       1.0  0.975689025290558  0.7520643592871905  0.06289936692485454  1.0000
  H   H17       1.0  0.9984512050157469  0.6219530460768699  0.6251410425964643  1.0000
  Zn  Zn1       1.0  0.9152283257893479  0.5679664870325651  0.575085972071142  1.0000
  Zn  Zn2       1.0  0.10092073933555357  0.5658911450070858  0.5756371414292544  1.0000
  C   C26       1.0  0.008110975524115768  0.5611839724172073  0.8124626355546161  1.0000
  C   C27       1.0  0.008040106504130225  0.5726754565842245  0.33826061638247296  1.0000
  C   C28       1.0  0.006503378551614202  0.8303219591381809  0.5709112457718486  1.0000
  C   C29       1.0  0.0096476504461731  0.30353573791501454  0.5798120704378009  1.0000
  O   O3        1.0  0.07849654156788108  0.573810110749841  0.3868449018208543  1.0000
  O   O4        1.0  0.07859079220031995  0.5584730937299776  0.7642962981979637  1.0000
  O   O5        1.0  0.07729168735436559  0.775805432338571  0.5692418432277584  1.0000
  O   O6        1.0  0.07979558298806055  0.3564777831658552  0.581899259288891  1.0000
  O   O7        1.0  0.9363534187691243  0.7773798495835782  0.5688238540165936  1.0000
  O   O8        1.0  0.9376525132778201  0.5600492436330028  0.7638782445193258  1.0000
  O   O9        1.0  0.9375582630013473  0.5753862103971752  0.3864252871211369  1.0000
  O   O10       1.0  0.9388573044795848  0.3580538724983639  0.5814797418964306  1.0000
