data_image0
_chemical_formula_structural       NC5NC3BrH3C6NCH9C6H6Zn2C4O8
_chemical_formula_sum              "N3 C25 Br1 H18 Zn2 O8"
_cell_length_a       13.839083392302014
_cell_length_b       9.273386996610926
_cell_length_c       10.681121600428288
_cell_angle_alpha    85.46621756597041
_cell_angle_beta     90.00087308194136
_cell_angle_gamma    89.42455387291925

_space_group_name_H-M_alt    "P 1"
_space_group_IT_number       1

loop_
  _space_group_symop_operation_xyz
  'x, y, z'

loop_
  _atom_site_type_symbol
  _atom_site_label
  _atom_site_symmetry_multiplicity
  _atom_site_fract_x
  _atom_site_fract_y
  _atom_site_fract_z
  _atom_site_occupancy
  N   N1        1.0  0.898792116761486  0.5794840431221013  0.6163846768838167  1.0000
  C   C1        1.0  0.8272372806520336  0.5158113866331431  0.6186167252681237  1.0000
  C   C2        1.0  0.7380850873000975  0.4365805871906529  0.6213940281747099  1.0000
  C   C3        1.0  0.6499924821823791  0.5128178190645007  0.6187218284813437  1.0000
  C   C4        1.0  0.5624715562757654  0.4380540295875377  0.6213423302673419  1.0000
  C   C5        1.0  0.4721599862923581  0.5166438064130785  0.6185875315165071  1.0000
  N   N2        1.0  0.3995611748561066  0.5798238258269186  0.6163727180932115  1.0000
  C   C6        1.0  0.5629795941515922  0.2867413531634879  0.6266459972998858  1.0000
  C   C7        1.0  0.6506280065976088  0.21038279435202537  0.6293223702916204  1.0000
  C   C8        1.0  0.7383499846281877  0.28443211045973316  0.6267269290687933  1.0000
  Br  Br1       1.0  0.8565274199004698  0.17428794156956462  0.6305876741177124  1.0000
  H   H1        1.0  0.6495437053631059  0.6300723371521727  0.6146117621501432  1.0000
  H   H2        1.0  0.4956991568535463  0.22785998561802345  0.6287096180508132  1.0000
  H   H3        1.0  0.6503118331102266  0.09337760448039291  0.6334233695677725  1.0000
  C   C9        1.0  0.15215266222605783  0.1560019510666697  0.6169940163003372  1.0000
  C   C10       1.0  0.16911912413257427  0.2394890605726778  0.5037639416188358  1.0000
  C   C11       1.0  0.17698756087501466  0.17499150881569037  0.39052708439024886  1.0000
  C   C12       1.0  0.16800856349268045  0.024684752306085796  0.3876251004147617  1.0000
  C   C13       1.0  0.15274493421950486  0.9402358837233009  0.5004618000090582  1.0000
  C   C14       1.0  0.14620993149707395  0.0032947756140786536  0.6157742722650785  1.0000
  N   N3        1.0  0.17506015297074826  0.9551502216728959  0.27205037960023076  1.0000
  C   C15       1.0  0.19115713574050996  0.033057638806895495  0.14984486213795004  1.0000
  H   H4        1.0  0.17189387501886944  0.41816006629789976  0.8225915272212804  1.0000
  H   H5        1.0  0.17404760201054414  0.35613829769981886  0.5022274349387326  1.0000
  H   H6        1.0  0.18917323334506486  0.24360189409339236  0.30546305167735377  1.0000
  H   H7        1.0  0.14818405791721867  0.8238317197488081  0.4984863511253905  1.0000
  H   H8        1.0  0.18178751237396495  0.871956965474437  0.9207859114018215  1.0000
  H   H9        1.0  0.16822872620659246  0.842778464237093  0.27464737532169403  1.0000
  H   H10       1.0  0.13125507717749008  0.11159055898341985  0.1280879721502524  1.0000
  H   H11       1.0  0.26109621705914243  0.09065683824074955  0.15004527388464095  1.0000
  H   H12       1.0  0.19359302019109248  0.9556226968218696  0.0757076423601668  1.0000
  C   C16       1.0  0.14918132829615716  0.5796483529213812  0.24863890402011363  1.0000
  C   C17       1.0  0.08058230217291085  0.49936540965649523  0.18733356856210207  1.0000
  C   C18       1.0  0.08058224119492374  0.49936550212084385  0.0564514284774742  1.0000
  C   C19       1.0  0.14918125183841766  0.5796484235893755  0.9841293395964585  1.0000
  C   C20       1.0  0.21772366018189215  0.6598648364932955  0.04543419178671716  1.0000
  C   C21       1.0  0.21772364797611177  0.6598648141142924  0.17632649048226234  1.0000
  H   H13       1.0  0.21855312267363214  0.6608364673805612  0.5417781734023821  1.0000
  H   H14       1.0  0.026811147063119604  0.4364358443862391  0.24046223306359574  1.0000
  H   H15       1.0  0.026811126406299797  0.43643591228148515  0.011958203740781272  1.0000
  H   H16       1.0  0.27150183660143345  0.7228026942164407  0.9923498505536725  1.0000
  H   H17       1.0  0.2715017882715711  0.7228026436097366  0.2207742181120436  1.0000
  H   H18       1.0  0.21855342777594267  0.6608359649528944  0.6798491484053582  1.0000
  Zn  Zn1       1.0  0.04330327980123915  0.5795782290802172  0.6163884687384973  1.0000
  Zn  Zn2       1.0  0.25505008689276565  0.5797178151182365  0.6163792204322134  1.0000
  C   C22       1.0  0.14921944657683212  0.5739010890449259  0.8451141884411659  1.0000
  C   C23       1.0  0.1491362196185888  0.5853967769740656  0.38765362092099376  1.0000
  C   C24       1.0  0.14732827695596482  0.8431384065893051  0.6110145113752923  1.0000
  C   C25       1.0  0.1510273291419946  0.31615772608595205  0.6217533672504991  1.0000
  O   O1        1.0  0.22947793464180388  0.587372678860355  0.4343047292047755  1.0000
  O   O2        1.0  0.22958866628190444  0.5720300413855917  0.7984557019826084  1.0000
  O   O3        1.0  0.228060439647642  0.7894425795592626  0.6094185543456596  1.0000
  O   O4        1.0  0.2310060889488463  0.3699601509592938  0.6233417829338816  1.0000
  O   O5        1.0  0.06734720548635376  0.7893358931930967  0.6094259062333955  1.0000
  O   O6        1.0  0.06887541995927382  0.5719250883170965  0.7984629846032795  1.0000
  O   O7        1.0  0.06876468873613438  0.5872676755182487  0.43431050627523354  1.0000
  O   O8        1.0  0.07029284311159234  0.36985513729851466  0.6233476539087492  1.0000
