data_image0
_chemical_formula_structural       NC9NC3OCH8C13OH12C12ClH9Zn2C4O8
_chemical_formula_sum              "N2 C42 O10 H29 Cl1 Zn2"
_cell_length_a       17.728193572023454
_cell_length_b       10.299150109392551
_cell_length_c       10.299771906710086
_cell_angle_alpha    85.52403423523229
_cell_angle_beta     90.71328065090168
_cell_angle_gamma    88.43520969070386

_space_group_name_H-M_alt    "P 1"
_space_group_IT_number       1

loop_
  _space_group_symop_operation_xyz
  'x, y, z'

loop_
  _atom_site_type_symbol
  _atom_site_label
  _atom_site_symmetry_multiplicity
  _atom_site_fract_x
  _atom_site_fract_y
  _atom_site_fract_z
  _atom_site_occupancy
  N   N1        1.0  0.7102088081604238  0.38746352153212116  0.5846904743521315  1.0000
  C   C1        1.0  0.6496018123369014  0.3500283966519975  0.5977088125229798  1.0000
  C   C2        1.0  0.5741544301170642  0.3034915349976337  0.6139112830880677  1.0000
  C   C3        1.0  0.5622710430007015  0.17543962312658312  0.6233760941382883  1.0000
  C   C4        1.0  0.485567415622644  0.12597938583077606  0.6383440568718137  1.0000
  C   C5        1.0  0.4274118038040456  0.2086510962594368  0.6557854781772394  1.0000
  C   C6        1.0  0.3493700541933398  0.16359273718002207  0.6775355471872009  1.0000
  C   C7        1.0  0.2880159569177869  0.24907944756184985  0.6420439315994559  1.0000
  C   C8        1.0  0.2137473649842133  0.209767269641991  0.6622057933417541  1.0000
  C   C9        1.0  0.1514140377684598  0.297791633172104  0.6246389286445946  1.0000
  N   N2        1.0  0.10131145342547633  0.36855469285334985  0.5944387206210474  1.0000
  C   C10       1.0  0.2002015209094785  0.08484820053115195  0.7189134090044282  1.0000
  C   C11       1.0  0.26065705003476125  0.9996786433304179  0.7558134910876604  1.0000
  C   C12       1.0  0.3348220742508853  0.03850111326679005  0.7357813841805891  1.0000
  O   O1        1.0  0.44075341697555265  0.3424487123106472  0.6544437826780974  1.0000
  C   C13       1.0  0.5084669248905641  0.399848737921839  0.6058139968835949  1.0000
  H   H1        1.0  0.6092055517557103  0.10597350994132371  0.6212988900648431  1.0000
  H   H2        1.0  0.47792617117333325  0.022321776212798284  0.6363972705603554  1.0000
  H   H3        1.0  0.2978920838322875  0.345926688799969  0.5975835106711807  1.0000
  H   H4        1.0  0.1429919394351941  0.053552307836341344  0.7350645083991683  1.0000
  H   H5        1.0  0.2500441961358046  0.9034901857594598  0.8007348248946358  1.0000
  H   H6        1.0  0.3803636012210315  0.9712549192969039  0.7682250794371726  1.0000
  H   H7        1.0  0.49898355369480146  0.43581275569737854  0.5022744360968074  1.0000
  H   H8        1.0  0.5213451180818889  0.4842248053144141  0.6623676848318092  1.0000
  C   C14       1.0  0.9058348975284864  0.9966058127035916  0.5897105888421885  1.0000
  C   C15       1.0  0.9044577033744581  0.9848284470752081  0.7264866221233524  1.0000
  C   C16       1.0  0.9036937482926849  0.8617257252550408  0.7955696432006382  1.0000
  C   C17       1.0  0.9043121695849909  0.7495802441439058  0.7261196006824013  1.0000
  C   C18       1.0  0.905692619049594  0.7594020210843887  0.5894300472779688  1.0000
  C   C19       1.0  0.906447991348809  0.8833752778701391  0.5220243962565485  1.0000
  C   C20       1.0  0.902230244681896  0.8502487029141723  0.9401728917940911  1.0000
  C   C21       1.0  0.8558325230743239  0.7595919005249065  0.007037654147283969  1.0000
  C   C22       1.0  0.8544303655394329  0.7488746520616462  0.1431085433779129  1.0000
  C   C23       1.0  0.8998955550163037  0.8276321474812184  0.21478686681877235  1.0000
  C   C24       1.0  0.9455713392384871  0.9192773015026303  0.14854668001756133  1.0000
  C   C25       1.0  0.9469910144309385  0.930169500147346  0.012475938702672499  1.0000
  C   C26       1.0  0.8968020452217358  0.8185467914726221  0.36079563780365437  1.0000
  O   O2        1.0  0.8404014518913933  0.9044373277822506  0.39963039906932857  1.0000
  H   H9        1.0  0.9079441304207996  0.22615268224854826  0.33152719614676807  1.0000
  H   H10       1.0  0.9029298029395414  0.07165895745384043  0.7794569735544477  1.0000
  H   H11       1.0  0.9047477137345836  0.6544199033862925  0.7789638288566637  1.0000
  H   H12       1.0  0.9075106379125043  0.8916674201249357  0.4165916004149351  1.0000
  H   H13       1.0  0.9061727945559908  0.4357068087156481  0.5368531850350249  1.0000
  H   H14       1.0  0.8197372947575611  0.6983449989030406  0.9540294261829401  1.0000
  H   H15       1.0  0.8177247423217977  0.6793035816136549  0.1925690800596348  1.0000
  H   H16       1.0  0.9802765650531585  0.9821441383105661  0.20226646585846586  1.0000
  H   H17       1.0  0.9837219986157669  0.00018452011677804183  0.9638226752305371  1.0000
  H   H18       1.0  0.9523162033610806  0.8436791899105154  0.4023492277390006  1.0000
  H   H19       1.0  0.8845416365056485  0.7171061881594358  0.3983025266243173  1.0000
  H   H20       1.0  0.8406900634371208  0.8947152976475343  0.4962640127725402  1.0000
  C   C27       1.0  0.9057278194366374  0.37811200410743767  0.20820010453273513  1.0000
  C   C28       1.0  0.9741648014822851  0.44369188260682657  0.2035531898730705  1.0000
  C   C29       1.0  0.008879197627011726  0.4768117913856136  0.08406918057564329  1.0000
  C   C30       1.0  0.9742376391025901  0.4434731811469819  0.9682853072251154  1.0000
  C   C31       1.0  0.905799686288107  0.37789590968312653  0.9709405407979369  1.0000
  C   C32       1.0  0.871928373426749  0.3455817067681435  0.09137538425243232  1.0000
  C   C33       1.0  0.08128031951482839  0.5461884142746583  0.08020689281283144  1.0000
  C   C34       1.0  0.09318824833301113  0.6486263288597552  0.16026838964409132  1.0000
  C   C35       1.0  0.1613679035250227  0.7138229970948771  0.1564466287036954  1.0000
  C   C36       1.0  0.2184132222001507  0.6775914280803688  0.07289257518921599  1.0000
  C   C37       1.0  0.20722557955293208  0.5759782272736498  0.9929775145410541  1.0000
  C   C38       1.0  0.1391136039645824  0.5105779485311364  0.9964254039227184  1.0000
  Cl  Cl1       1.0  0.3039096354763028  0.7595152375560745  0.06833271901723936  1.0000
  H   H21       1.0  0.8796299816478076  0.3531810598279945  0.5374192326668514  1.0000
  H   H22       1.0  0.0011603719574275735  0.4675883087427993  0.2931977083761552  1.0000
  H   H23       1.0  0.00023858595480974573  0.47035951594086933  0.8758135950782099  1.0000
  H   H24       1.0  0.8191319331816576  0.2949909914337614  0.09419205067226578  1.0000
  H   H25       1.0  0.8797360687419459  0.3528613331695778  0.6445028063714671  1.0000
  H   H26       1.0  0.04943388866615941  0.6793972381673503  0.22454134124054106  1.0000
  H   H27       1.0  0.16969755030649125  0.792700781281306  0.21825907144724788  1.0000
  H   H28       1.0  0.25132392872135917  0.5473380112355246  0.9283687819741444  1.0000
  H   H29       1.0  0.13203663518279707  0.4310992780197118  0.9348639154945768  1.0000
  Zn  Zn1       1.0  0.8230725961189185  0.3820033692379956  0.5875111086685676  1.0000
  Zn  Zn2       1.0  0.9884476940431371  0.37400423746196426  0.5916287279091277  1.0000
  C   C39       1.0  0.9057853905312387  0.3727626690134436  0.8267681011469468  1.0000
  C   C40       1.0  0.9057367052280877  0.3832464890666794  0.35237190725914846  1.0000
  C   C41       1.0  0.9057151400035562  0.6152189936619878  0.58430777129316  1.0000
  C   C42       1.0  0.9058068996223916  0.14078860668553683  0.5948323055206901  1.0000
  O   O3        1.0  0.968498676240433  0.3819283740523407  0.40231989840655835  1.0000
  O   O4        1.0  0.9685392924716124  0.36800864839264263  0.7799449142409854  1.0000
  O   O5        1.0  0.9684817183881488  0.563795237364157  0.5841564608751704  1.0000
  O   O6        1.0  0.9685561938816687  0.1861417971290349  0.5981082529888948  1.0000
  O   O7        1.0  0.8429640398459812  0.5698658123020515  0.581031582176827  1.0000
  O   O8        1.0  0.8430216136284178  0.3740807837942628  0.7768199657229147  1.0000
  O   O9        1.0  0.8429809973087328  0.388000464633941  0.3991933885004273  1.0000
  O   O10       1.0  0.8430385149577909  0.19221387839355342  0.5949818404542695  1.0000
