data_image0
_chemical_formula_structural       NC9NC3OH6C6FH5C7H8Zn2C4O8
_chemical_formula_sum              "N2 C29 O9 H19 F1 Zn2"
_cell_length_a       15.78231758774541
_cell_length_b       9.275642734913905
_cell_length_c       9.274345330872308
_cell_angle_alpha    85.0458555401147
_cell_angle_beta     89.64000707228584
_cell_angle_gamma    90.23470761467162

_space_group_name_H-M_alt    "P 1"
_space_group_IT_number       1

loop_
  _space_group_symop_operation_xyz
  'x, y, z'

loop_
  _atom_site_type_symbol
  _atom_site_label
  _atom_site_symmetry_multiplicity
  _atom_site_fract_x
  _atom_site_fract_y
  _atom_site_fract_z
  _atom_site_occupancy
  N   N1        1.0  0.8148403921299106  0.5815515479331346  0.4085617020465364  1.0000
  C   C1        1.0  0.7656226536517975  0.49021464613642274  0.43545070910007055  1.0000
  C   C2        1.0  0.7045172028069244  0.3768433466065455  0.4688268921630913  1.0000
  C   C3        1.0  0.7231110464239702  0.23443139566629356  0.5106645117746622  1.0000
  C   C4        1.0  0.6458621329901423  0.16541235967342316  0.5310235056848216  1.0000
  C   C5        1.0  0.5848722633705391  0.2708131535850135  0.5001047519824149  1.0000
  C   C6        1.0  0.4916346124866739  0.25132538256289205  0.5059231331074361  1.0000
  C   C7        1.0  0.4387868002574603  0.37081178755521954  0.4706894571353195  1.0000
  C   C8        1.0  0.35046001271764243  0.3548322220400127  0.47546834756178935  1.0000
  C   C9        1.0  0.2969418520641933  0.47779521562498567  0.43920036558489617  1.0000
  N   N2        1.0  0.2539260330600319  0.5766416089593337  0.41004415648862946  1.0000
  C   C10       1.0  0.314298404379217  0.2191883956180585  0.5155356123029223  1.0000
  C   C11       1.0  0.36621711713684807  0.0999489886058669  0.5507012855055301  1.0000
  C   C12       1.0  0.45435494400064835  0.11548958056774272  0.5460522654590869  1.0000
  O   O1        1.0  0.6222683614496002  0.395727618311402  0.4633537074908547  1.0000
  H   H1        1.0  0.7852112925277  0.18640540636932768  0.5247171508039685  1.0000
  H   H2        1.0  0.6362782560747893  0.051927866800536966  0.5643797256721967  1.0000
  H   H3        1.0  0.4661852051531187  0.47636677601906585  0.4395047737398621  1.0000
  H   H4        1.0  0.2460802349409566  0.20565455195712798  0.5195807254138305  1.0000
  H   H5        1.0  0.3380938153153028  0.9951156252456713  0.5816732449457891  1.0000
  H   H6        1.0  0.4927320706183214  0.021043503289986283  0.5739151229026339  1.0000
  C   C13       1.0  0.03176440699201819  0.1555771563536279  0.40991463423763386  1.0000
  C   C14       1.0  0.015960781748822088  0.24006439501032031  0.27948318278034723  1.0000
  C   C15       1.0  0.008147181433696846  0.17586900375831127  0.14952390819215444  1.0000
  C   C16       1.0  0.016084328523425766  0.026503652394042513  0.14769955772979257  1.0000
  C   C17       1.0  0.030365873002218248  0.9404593943406755  0.27610698645663745  1.0000
  C   C18       1.0  0.037009995868613865  0.0026047332935006306  0.4087037095224173  1.0000
  F   F1        1.0  0.9938459655869951  0.2590836355475503  0.02464053495190787  1.0000
  H   H7        1.0  0.11784237415928328  0.2312936779864907  0.7325683608121141  1.0000
  H   H8        1.0  0.011643239438076543  0.35675218710386103  0.2776215674455911  1.0000
  H   H9        1.0  0.010359409197650429  0.9768786876825369  0.04674561035758229  1.0000
  H   H10       1.0  0.03421017424596061  0.8242868332540066  0.27215353444935175  1.0000
  H   H11       1.0  0.09157055172879303  0.7028955670462668  0.627758442580947  1.0000
  C   C19       1.0  0.03632392997082933  0.5823123098938399  0.9855085604028541  1.0000
  C   C20       1.0  0.9865058793602512  0.6844635857000227  0.050452588196383985  1.0000
  C   C21       1.0  0.931550697251781  0.775073188849935  0.9681029003092928  1.0000
  C   C22       1.0  0.9244591750215874  0.7645421497918469  0.819150139080746  1.0000
  C   C23       1.0  0.9756160598425783  0.6664312048420051  0.7522004636204032  1.0000
  C   C24       1.0  0.032450427800577906  0.5758695980061803  0.8331097669487194  1.0000
  C   C25       1.0  0.8666793318814736  0.8642701308338441  0.7302825511914959  1.0000
  H   H12       1.0  0.13164446334230995  0.2670902603038485  0.1146224784972083  1.0000
  H   H13       1.0  0.9887111064659085  0.692178679655528  0.1662658003644528  1.0000
  H   H14       1.0  0.8937839860989202  0.8525414240305772  0.021025856420751495  1.0000
  H   H15       1.0  0.9723881783135867  0.6631788491401653  0.6358022771606273  1.0000
  H   H16       1.0  0.0997292067335902  0.36659774187272604  0.5697439328964813  1.0000
  H   H17       1.0  0.9018995825054933  0.9640182160922894  0.6911322054421984  1.0000
  H   H18       1.0  0.8112614635923722  0.8942696628026799  0.7956277634376483  1.0000
  H   H19       1.0  0.8425467639745069  0.8112387519133881  0.6356767736198434  1.0000
  Zn  Zn1       1.0  0.9415509577731758  0.5801307299276919  0.40899783908449616  1.0000
  Zn  Zn2       1.0  0.12721531211378578  0.5780505663240869  0.40961983378588407  1.0000
  C   C26       1.0  0.03314515070114285  0.5713419241673281  0.6729032253434934  1.0000
  C   C27       1.0  0.035623157256881026  0.5868411680188179  0.14571459336614812  1.0000
  C   C28       1.0  0.036040372645132344  0.8425422572943988  0.40318163131134077  1.0000
  C   C29       1.0  0.032727860876210046  0.3156391022632479  0.41543626660542143  1.0000
  O   O2        1.0  0.10584658744133095  0.5875653909886491  0.19971725427136144  1.0000
  O   O3        1.0  0.10383666464109864  0.5690378203065336  0.6193722301393285  1.0000
  O   O4        1.0  0.10617363630182547  0.7880355183381593  0.40157012930748714  1.0000
  O   O5        1.0  0.10350955298433484  0.3685677048063658  0.4175192466674821  1.0000
  O   O6        1.0  0.9652566535445387  0.7896135921568983  0.4010984259830479  1.0000
  O   O7        1.0  0.9629196929624059  0.5706176274652572  0.61890044738792  1.0000
  O   O8        1.0  0.9649296234371394  0.5891451610778105  0.1992437364674038  1.0000
  O   O9        1.0  0.9625925884183243  0.37014746375767066  0.41704583707939613  1.0000
