data_image0
_chemical_formula_structural       NC9NC3OH6C9H9C8NH11Zn2C4O8
_chemical_formula_sum              "N3 C33 O9 H26 Zn2"
_cell_length_a       15.78231758774541
_cell_length_b       9.272676604525723
_cell_length_c       9.275652972338538
_cell_angle_alpha    86.18554014345204
_cell_angle_beta     90.52078220685846
_cell_angle_gamma    90.18380166211226

_space_group_name_H-M_alt    "P 1"
_space_group_IT_number       1

loop_
  _space_group_symop_operation_xyz
  'x, y, z'

loop_
  _atom_site_type_symbol
  _atom_site_label
  _atom_site_symmetry_multiplicity
  _atom_site_fract_x
  _atom_site_fract_y
  _atom_site_fract_z
  _atom_site_occupancy
  N   N1        1.0  0.7996524903696922  0.5588435655605117  0.4195989927486623  1.0000
  C   C1        1.0  0.7507231519867678  0.4678959334521118  0.44592615694933274  1.0000
  C   C2        1.0  0.6899756792888493  0.35500781774824697  0.4786049559939398  1.0000
  C   C3        1.0  0.709018401789687  0.21320157194125142  0.5195666553674188  1.0000
  C   C4        1.0  0.6319877830833469  0.14447725940461487  0.5395010440850838  1.0000
  C   C5        1.0  0.5706661072523939  0.2494304128340041  0.5092305162594515  1.0000
  C   C6        1.0  0.4774907260054794  0.23002685006897816  0.5149289272890878  1.0000
  C   C7        1.0  0.4242651085986126  0.34900319731719254  0.48043031786875234  1.0000
  C   C8        1.0  0.3359894527494337  0.33309279341732045  0.48511082609232375  1.0000
  C   C9        1.0  0.28208241147027413  0.45553075888742006  0.4495993088664685  1.0000
  N   N2        1.0  0.2387539696547819  0.5539550770616644  0.42105120155911613  1.0000
  C   C10       1.0  0.3002573640427827  0.19802897752986404  0.5243435453110239  1.0000
  C   C11       1.0  0.3525531447359963  0.07929864240610619  0.558775665849393  1.0000
  C   C12       1.0  0.4406412317755348  0.09477195268618677  0.5542223269942509  1.0000
  O   O1        1.0  0.6076679907956214  0.3738128293006413  0.4732478343635449  1.0000
  H   H1        1.0  0.7712695140918799  0.1653790466772371  0.5333239708472985  1.0000
  H   H2        1.0  0.6227617592370603  0.031475677026365105  0.5721592457043705  1.0000
  H   H3        1.0  0.45132922353202937  0.45410676032147745  0.4498950651974208  1.0000
  H   H4        1.0  0.23208247912298363  0.18455367670798228  0.5283053366545574  1.0000
  H   H5        1.0  0.32476185176103023  0.974913625003252  0.5891026338430487  1.0000
  H   H6        1.0  0.4793171057979486  0.0007292262254368111  0.5815041480072103  1.0000
  C   C13       1.0  0.01679829626615946  0.13292524531961614  0.41847581342458917  1.0000
  C   C14       1.0  0.9834144818067531  0.19820318149709637  0.5377398426988396  1.0000
  C   C15       1.0  0.9577985054205262  0.11518244708305381  0.6605523126897479  1.0000
  C   C16       1.0  0.9647404733082617  0.9644076666412242  0.6682334366552669  1.0000
  C   C17       1.0  0.996731129570356  0.897688064533595  0.547854274293341  1.0000
  C   C18       1.0  0.02161626966195927  0.9798622978656295  0.42218682216610787  1.0000
  C   C19       1.0  0.9361644724083837  0.8820462446635722  0.8066007178280703  1.0000
  C   C20       1.0  0.893278106495645  0.7363321846399904  0.7921075280329348  1.0000
  C   C21       1.0  0.9830174169692085  0.7431891017449637  0.8533930539494017  1.0000
  H   H7        1.0  0.03456036849860222  0.4299554805990665  0.1823380158421959  1.0000
  H   H8        1.0  0.9789431399408431  0.31477455003146626  0.5375864919566362  1.0000
  H   H9        1.0  0.9331019516958523  0.16951658305365136  0.7510362757284583  1.0000
  H   H10       1.0  0.042028068552644154  0.9004317771827509  0.06932189839154758  1.0000
  H   H11       1.0  0.9125842146050249  0.943045685323741  0.8972760550048275  1.0000
  H   H12       1.0  0.8888560397224057  0.6963877354188409  0.6822092949519298  1.0000
  H   H13       1.0  0.8445442356601417  0.7086550659136968  0.8751014247742576  1.0000
  H   H14       1.0  0.03308175623758933  0.7072822438345109  0.7808075283190572  1.0000
  H   H15       1.0  0.9867297607698691  0.7195136175644513  0.9722244265185507  1.0000
  C   C22       1.0  0.01730505444896901  0.5536041854956144  0.9970420196468158  1.0000
  C   C23       1.0  0.9628847396050682  0.648545545302559  0.0634207135780478  1.0000
  C   C24       1.0  0.9152023164498124  0.7518273300312883  0.9810112308007991  1.0000
  C   C25       1.0  0.9207878100304391  0.7587912160235482  0.8302749785847654  1.0000
  C   C26       1.0  0.9733429490914874  0.6639348170248895  0.7624823188277898  1.0000
  C   C27       1.0  0.021109508442172395  0.5591833824445982  0.8436205900936398  1.0000
  C   C28       1.0  0.8562959528847941  0.8511467061788778  0.053790568004759245  1.0000
  C   C29       1.0  0.7687772506404685  0.781657505548057  0.07398108171859485  1.0000
  N   N3        1.0  0.7118654918758109  0.8797512722061097  0.1424259311639251  1.0000
  H   H16       1.0  0.07819015092042186  0.3386586584572  0.2929158609265323  1.0000
  H   H17       1.0  0.9588316428955853  0.6445782980417605  0.1802173355923513  1.0000
  H   H18       1.0  0.8836595689177124  0.836884110892624  0.7649078705960095  1.0000
  H   H19       1.0  0.9749079001507462  0.6701111692542918  0.645494641619972  1.0000
  H   H20       1.0  0.13655281671145858  0.42581049271681337  0.5729460058696065  1.0000
  H   H21       1.0  0.8829745210219027  0.8761901023649803  0.16070365087859861  1.0000
  H   H22       1.0  0.8501050480821831  0.95533492781473  0.9879148239495428  1.0000
  H   H23       1.0  0.7421498672234875  0.757772274592849  0.9666560688300118  1.0000
  H   H24       1.0  0.7741707599544588  0.6783078714853357  0.1417409838720305  1.0000
  H   H25       1.0  0.6517455388067365  0.8319912448314513  0.1464186534098204  1.0000
  H   H26       1.0  0.7317470344142125  0.8867482199756692  0.24964310221291375  1.0000
  Zn  Zn1       1.0  0.9263677039960201  0.5574290562189268  0.420026369118218  1.0000
  Zn  Zn2       1.0  0.11203871353453926  0.5553578943498116  0.42063555689205345  1.0000
  C   C30       1.0  0.0203557920013111  0.5523839275376463  0.6835739413374  1.0000
  C   C31       1.0  0.018052664037399024  0.5604048208783676  0.157088140775421  1.0000
  C   C32       1.0  0.020675372490612114  0.8197353726075982  0.41574130361077977  1.0000
  C   C33       1.0  0.017733010680904604  0.293051644453314  0.4249208475520352  1.0000
  O   O2        1.0  0.08876471334309438  0.5618948898325364  0.21103223708469998  1.0000
  O   O3        1.0  0.0905637347473009  0.5493208040245865  0.6300917847465661  1.0000
  O   O4        1.0  0.09082085691915015  0.7652104975122673  0.41381503827551036  1.0000
  O   O5        1.0  0.08850752738729993  0.3460052066552497  0.4273088753149126  1.0000
  O   O6        1.0  0.9498988267828316  0.7667817446217948  0.4133530504798977  1.0000
  O   O7        1.0  0.9496417141177467  0.5508937831975207  0.6296297276854983  1.0000
  O   O8        1.0  0.947842684695977  0.563467807331222  0.21056844677253442  1.0000
  O   O9        1.0  0.9475854991636995  0.34757811455184706  0.4268451930281296  1.0000
