data_image0
_chemical_formula_structural       NC5OC5NC4H8C9H10C6BrH4Zn2C4O8
_chemical_formula_sum              "N2 C33 O9 H22 Br1 Zn2"
_cell_length_a       19.189071930511275
_cell_length_b       10.297183801781406
_cell_length_c       9.27656775626242
_cell_angle_alpha    86.09344643719086
_cell_angle_beta     90.16432666077901
_cell_angle_gamma    89.98878219536965

_space_group_name_H-M_alt    "P 1"
_space_group_IT_number       1

loop_
  _space_group_symop_operation_xyz
  'x, y, z'

loop_
  _atom_site_type_symbol
  _atom_site_label
  _atom_site_symmetry_multiplicity
  _atom_site_fract_x
  _atom_site_fract_y
  _atom_site_fract_z
  _atom_site_occupancy
  N   N1        1.0  0.6536852768811462  0.40749755311658276  0.409420867427688  1.0000
  C   C1        1.0  0.5991953979200344  0.4534493216220039  0.3891031564518974  1.0000
  C   C2        1.0  0.5314170158254831  0.5106056613547627  0.36383097760570166  1.0000
  C   C3        1.0  0.5215422110631511  0.6065635849863045  0.251259812847926  1.0000
  C   C4        1.0  0.4557030515828806  0.662157951504254  0.2268504501598383  1.0000
  C   C5        1.0  0.3990775617214878  0.6216775636324621  0.3135086243255307  1.0000
  O   O1        1.0  0.3340633899735727  0.6808823491732834  0.28658451949107544  1.0000
  C   C6        1.0  0.2691355458402465  0.6214824359284817  0.31288273264676425  1.0000
  C   C7        1.0  0.21242398597270762  0.6993891027227165  0.3464164629534079  1.0000
  C   C8        1.0  0.14666552331082822  0.6440886133059827  0.37176949178219054  1.0000
  C   C9        1.0  0.1369578672344912  0.5101481441460847  0.3623620793947051  1.0000
  C   C10       1.0  0.0692623888499827  0.4531972410776057  0.38829373075960394  1.0000
  N   N2        1.0  0.014839213575768112  0.4074106979646419  0.4091421118521419  1.0000
  C   C11       1.0  0.1931928526133913  0.4319143480580551  0.3267011631379728  1.0000
  C   C12       1.0  0.2589425304655459  0.48725471626441375  0.30139652778695347  1.0000
  C   C13       1.0  0.40943733335955546  0.5266383650493431  0.427874925464764  1.0000
  C   C14       1.0  0.475267686797298  0.4710404936840642  0.4523523891844421  1.0000
  H   H1        1.0  0.5646820876548799  0.6384790572467565  0.1825750257241563  1.0000
  H   H2        1.0  0.4485294938526982  0.736448756700556  0.1397505163513597  1.0000
  H   H3        1.0  0.21946812069815577  0.8030570816677038  0.353660075804886  1.0000
  H   H4        1.0  0.10345752250284525  0.7057092129170348  0.3984815251959637  1.0000
  H   H5        1.0  0.18613944984271186  0.3283841522203168  0.31771017318694006  1.0000
  H   H6        1.0  0.3014354702157378  0.4258094635273003  0.27089685762263804  1.0000
  H   H7        1.0  0.3670106373722203  0.4969248534154391  0.4992804669117323  1.0000
  H   H8        1.0  0.48244967113323073  0.3978085000359406  0.5406627897776801  1.0000
  C   C15       1.0  0.8342683509364935  0.02598038276299097  0.40948563903645563  1.0000
  C   C16       1.0  0.8319984638549769  0.034503157406767127  0.25786368392469705  1.0000
  C   C17       1.0  0.8308353731335729  0.9222531367354879  0.18018332255022318  1.0000
  C   C18       1.0  0.8319893760992753  0.7993268818226466  0.2572760199018249  1.0000
  C   C19       1.0  0.8342628610891932  0.788918017789664  0.4090897540692111  1.0000
  C   C20       1.0  0.8353868461265  0.9027121567390773  0.4842035587874396  1.0000
  C   C21       1.0  0.8283801371636947  0.940903314173909  0.016193471990368243  1.0000
  C   C22       1.0  0.7874487068079242  0.8414885594924837  0.9360152402767556  1.0000
  C   C23       1.0  0.8668340205095755  0.8417373034849043  0.9313766654166692  1.0000
  H   H9        1.0  0.8351496283149449  0.35023473672124306  0.46791043653302306  1.0000
  H   H10       1.0  0.8311223085472158  0.12921578394106165  0.1993292439166463  1.0000
  H   H11       1.0  0.8311358608012087  0.7112252763559523  0.2003670712722605  1.0000
  H   H12       1.0  0.8371377623899064  0.8954092143477143  0.6011830813781713  1.0000
  H   H13       1.0  0.838547576922904  0.5620421568214533  0.6958231577702749  1.0000
  H   H14       1.0  0.8275916209489458  0.0411540168259865  0.9634842506765319  1.0000
  H   H15       1.0  0.7642975423627204  0.7584351526772577  0.0016055985076663993  1.0000
  H   H16       1.0  0.7627030510441717  0.8814680373624963  0.8340898569228523  1.0000
  H   H17       1.0  0.8919051723134421  0.7588358016373935  0.9941500907018881  1.0000
  H   H18       1.0  0.8884855849205988  0.8818597822150032  0.8267389097429731  1.0000
  C   C24       1.0  0.8336004405809729  0.4037161916714911  0.986163409734087  1.0000
  C   C25       1.0  0.7716732142417693  0.4350039263639671  0.056805820456329315  1.0000
  C   C26       1.0  0.7128426381919561  0.47699136182032337  0.9781284612630105  1.0000
  C   C27       1.0  0.7148342709415174  0.4885414669496071  0.8276250870834705  1.0000
  C   C28       1.0  0.775395308068532  0.45585077926157536  0.7552573966382203  1.0000
  C   C29       1.0  0.8349307825034537  0.41118224803213543  0.8324120316656374  1.0000
  Br  Br1       1.0  0.6343139266979303  0.5470525704500646  0.7204066619502023  1.0000
  H   H19       1.0  0.9294697295421244  0.2857022246381653  0.27698482111159284  1.0000
  H   H20       1.0  0.6658603824730389  0.5017702942813773  0.03446926165522757  1.0000
  H   H21       1.0  0.7752855823630974  0.46248647225178274  0.6382035751692752  1.0000
  H   H22       1.0  0.9495940479881615  0.3977407183443264  0.5529357544943547  1.0000
  Zn  Zn1       1.0  0.7579065235321393  0.40746909645781315  0.40934874094021434  1.0000
  Zn  Zn2       1.0  0.9106180028999171  0.4074286713969128  0.4092260247929789  1.0000
  C   C30       1.0  0.834677782229312  0.40459586749763155  0.6724555926265483  1.0000
  C   C31       1.0  0.833848412017849  0.4103035402336297  0.14611931233866593  1.0000
  C   C32       1.0  0.8342512757714621  0.6446559055480217  0.40342281972038463  1.0000
  C   C33       1.0  0.8342748664979618  0.17024194214303856  0.4151521629159418  1.0000
  O   O2        1.0  0.8918848440956899  0.412493306187569  0.1997554072701593  1.0000
  O   O3        1.0  0.8925458288435396  0.40237443620650065  0.6187259447094817  1.0000
  O   O4        1.0  0.8922006406031652  0.5962259663306624  0.40148007706321387  1.0000
  O   O5        1.0  0.8922299800560793  0.21864178441683335  0.4170011669174374  1.0000
  O   O6        1.0  0.7762944942630319  0.5962559834530352  0.40157359885005306  1.0000
  O   O7        1.0  0.7766396823681984  0.40240601338421644  0.6188193888595055  1.0000
  O   O8        1.0  0.775978694943728  0.412524822813183  0.19984711908803532  1.0000
  O   O9        1.0  0.7763238310711573  0.21867329270416389  0.4170929867686002  1.0000
