data_image0
_chemical_formula_structural       NC5OC5NC4H8C9H6C9H8Zn2C4O8
_chemical_formula_sum              "N2 C36 O9 H22 Zn2"
_cell_length_a       19.189071930511275
_cell_length_b       9.275152443626249
_cell_length_c       9.275155815604963
_cell_angle_alpha    85.85171904572837
_cell_angle_beta     90.33561097957745
_cell_angle_gamma    90.56463589314393

_space_group_name_H-M_alt    "P 1"
_space_group_IT_number       1

loop_
  _space_group_symop_operation_xyz
  'x, y, z'

loop_
  _atom_site_type_symbol
  _atom_site_label
  _atom_site_symmetry_multiplicity
  _atom_site_fract_x
  _atom_site_fract_y
  _atom_site_fract_z
  _atom_site_occupancy
  N   N1        1.0  0.6589747083419216  0.564874803047677  0.4043421571727448  1.0000
  C   C1        1.0  0.6047030331580385  0.6159272872398998  0.38386653690208217  1.0000
  C   C2        1.0  0.5371960597071223  0.6794280673770583  0.35839794513366563  1.0000
  C   C3        1.0  0.5276759200236346  0.7861202604429115  0.24547950044413303  1.0000
  C   C4        1.0  0.4621010000149658  0.8478854827373395  0.220879135449384  1.0000
  C   C5        1.0  0.4053822904077772  0.8028305486340231  0.307693600052523  1.0000
  O   O1        1.0  0.34064818002007624  0.8686080359509726  0.28056585651260146  1.0000
  C   C6        1.0  0.2754383225463057  0.8026146020843462  0.30706820094217413  1.0000
  C   C7        1.0  0.2191945865063972  0.8890887842807776  0.34035120003255637  1.0000
  C   C8        1.0  0.15317482568007243  0.8276487926351024  0.3658944895790195  1.0000
  C   C9        1.0  0.14273233232861524  0.6789217376964358  0.35693020150973864  1.0000
  C   C10       1.0  0.074767501147269  0.6156483123611821  0.3830577473335355  1.0000
  N   N2        1.0  0.02012777594313531  0.5647786812085573  0.40406362080929625  1.0000
  C   C11       1.0  0.1984946694236659  0.5920867959647913  0.32152057289017755  1.0000
  C   C12       1.0  0.2645059298732125  0.6535710150706204  0.29602555628138294  1.0000
  C   C13       1.0  0.4153949291678984  0.6971564620653579  0.4224045741233198  1.0000
  C   C14       1.0  0.48096112231450255  0.6353872673248144  0.44707306882498066  1.0000
  H   H1        1.0  0.5708887716609763  0.8216428151405794  0.17667140066223208  1.0000
  H   H2        1.0  0.4552021007868682  0.9304867171348865  0.1335103500769237  1.0000
  H   H3        1.0  0.226807420495977  0.004201410354567342  0.34725183170061613  1.0000
  H   H4        1.0  0.1103371233123451  0.8960456815387312  0.3924082531815718  1.0000
  H   H5        1.0  0.19087079342897054  0.47712923777871885  0.31287166919661447  1.0000
  H   H6        1.0  0.3066240618609548  0.5853733161195234  0.2657226262063679  1.0000
  H   H7        1.0  0.3729110335193211  0.6640759282272284  0.49392678460221423  1.0000
  H   H8        1.0  0.48787589290748734  0.5539603927536654  0.5356491019563445  1.0000
  C   C15       1.0  0.8375033411212298  0.14120769021155755  0.4056758404129417  1.0000
  C   C16       1.0  0.81198963219382  0.22289897465575947  0.28325631298473275  1.0000
  C   C17       1.0  0.7929466716489891  0.15638804137780896  0.15853942735242788  1.0000
  C   C18       1.0  0.7991168464511924  0.007003432429462549  0.15377265263947426  1.0000
  C   C19       1.0  0.8232646628766126  0.9236154492435098  0.2751584636511806  1.0000
  C   C20       1.0  0.8416058229301643  0.9884348708016043  0.40274238069125357  1.0000
  C   C21       1.0  0.7798414083481054  0.9387461800903525  0.024620130898621584  1.0000
  C   C22       1.0  0.7637027027795728  0.8815632640160949  0.9164751425005013  1.0000
  C   C23       1.0  0.7441215662537976  0.8121699085615086  0.7852601653003335  1.0000
  H   H9        1.0  0.9385185990286423  0.22531212596409178  0.6934275299294443  1.0000
  H   H10       1.0  0.8083173262264214  0.3394135317582516  0.2828058041871262  1.0000
  H   H11       1.0  0.774029222461778  0.2218286370364091  0.06521292885385033  1.0000
  H   H12       1.0  0.8261864406341397  0.8072700025616115  0.27113572339287284  1.0000
  H   H13       1.0  0.9073918270046959  0.6948141119212914  0.5995574244447415  1.0000
  H   H14       1.0  0.7732657485622919  0.863706940142055  0.6919492236336731  1.0000
  C   C24       1.0  0.8382600853177731  0.5611752800936961  0.980991503733789  1.0000
  C   C25       1.0  0.7840844654830558  0.6314804832818466  0.04860504833985346  1.0000
  C   C26       1.0  0.7346229657319304  0.7113717364175427  0.9670821576504619  1.0000
  C   C27       1.0  0.7384207486081968  0.7226306900351722  0.8164584867602604  1.0000
  C   C28       1.0  0.7911902606469932  0.6515507993940917  0.7471403425424223  1.0000
  C   C29       1.0  0.8408490587567319  0.5684672025855766  0.8274267098670918  1.0000
  C   C30       1.0  0.6875669124623287  0.8058925449262866  0.732612395129336  1.0000
  C   C31       1.0  0.6449860034606252  0.8756129772939232  0.6623760922805584  1.0000
  C   C32       1.0  0.5933217308336763  0.9602069334693641  0.577144737448346  1.0000
  H   H15       1.0  0.9994480672627755  0.4447442684992753  0.09422757542711357  1.0000
  H   H16       1.0  0.7809342562406174  0.6274825137086113  0.1654128466199951  1.0000
  H   H17       1.0  0.6937616805288583  0.765602775065755  0.02173917506583534  1.0000
  H   H18       1.0  0.7925106963562437  0.6583338246706338  0.6299695669141796  1.0000
  H   H19       1.0  0.9483715048047432  0.48489875307410557  0.5540503269937016  1.0000
  H   H20       1.0  0.6075028686307429  0.9643479085654132  0.46112047662941613  1.0000
  H   H21       1.0  0.5411710355825858  0.9088513666196195  0.5923889102022843  1.0000
  H   H22       1.0  0.592097460019298  0.07159646925945085  0.6132651527576516  1.0000
  Zn  Zn1       1.0  0.7631956978983149  0.5648432876446867  0.40427010730538626  1.0000
  Zn  Zn2       1.0  0.9159067828785541  0.5647985412899175  0.4041474949418278  1.0000
  C   C33       1.0  0.8403303158107652  0.5613420611797293  0.6674522656536643  1.0000
  C   C34       1.0  0.8387738418126935  0.5683015886399747  0.14096547040626728  1.0000
  C   C35       1.0  0.8408092088656545  0.828241396356032  0.39755384093123713  1.0000
  C   C36       1.0  0.8382948884908207  0.30140052097916636  0.4108639780077845  1.0000
  O   O2        1.0  0.89689929360084  0.5706699684550448  0.19460768603904777  1.0000
  O   O3        1.0  0.89810903749006  0.558938628080992  0.6137165789727392  1.0000
  O   O4        1.0  0.8984949730369762  0.7744632297775338  0.3957716868670933  1.0000
  O   O5        1.0  0.8965133056634218  0.35514537616229047  0.41255247009093243  1.0000
  O   O6        1.0  0.7825891230006332  0.7744964527890887  0.3958651321905371  1.0000
  O   O7        1.0  0.7822031956078863  0.5589735835938272  0.6138099414513478  1.0000
  O   O8        1.0  0.7809934462216794  0.5707048587708037  0.19469931595398915  1.0000
  O   O9        1.0  0.7806074585619488  0.35518025709103673  0.4126442080938906  1.0000
