data_image0
_chemical_formula_structural       NC5NC3F3CH3C6BrH5C6OCH6Zn2C4O8
_chemical_formula_sum              "N2 C26 F3 H14 Br1 O9 Zn2"
_cell_length_a       13.85151926108384
_cell_length_b       9.276564384272257
_cell_length_c       9.273891588657152
_cell_angle_alpha    86.03089208269444
_cell_angle_beta     89.68013377981825
_cell_angle_gamma    90.58593481197379

_space_group_name_H-M_alt    "P 1"
_space_group_IT_number       1

loop_
  _space_group_symop_operation_xyz
  'x, y, z'

loop_
  _atom_site_type_symbol
  _atom_site_label
  _atom_site_symmetry_multiplicity
  _atom_site_fract_x
  _atom_site_fract_y
  _atom_site_fract_z
  _atom_site_occupancy
  N   N1        1.0  0.9257401634088653  0.5638714521036985  0.40875967826646026  1.0000
  C   C1        1.0  0.8531188442236647  0.5553555046730632  0.4712258732478525  1.0000
  C   C2        1.0  0.762772192826568  0.5447605015696262  0.5489427559947763  1.0000
  C   C3        1.0  0.675586902432074  0.5533001339548855  0.4734200482611422  1.0000
  C   C4        1.0  0.5877202033063498  0.544760488243611  0.5489427359499794  1.0000
  C   C5        1.0  0.4980995918692943  0.555355521670696  0.4712259672894865  1.0000
  N   N2        1.0  0.42606197714841865  0.5638714151679889  0.4087597837376787  1.0000
  C   C6        1.0  0.5870220472436363  0.5266848713907855  0.7001649971145163  1.0000
  C   C7        1.0  0.6741899179845259  0.5149669631002327  0.7769523430472953  1.0000
  C   C8        1.0  0.6734840509253062  0.5008612729155169  0.9399654537842559  1.0000
  F   F1        1.0  0.7537162028783736  0.4265154483962054  0.991623743971175  1.0000
  F   F2        1.0  0.5918473876430427  0.4265154186939414  0.9916238432808896  1.0000
  F   F3        1.0  0.6742244839351825  0.637136004719721  0.9915635796293591  1.0000
  C   C9        1.0  0.7620923733598244  0.5266847763186124  0.7001650168092812  1.0000
  H   H1        1.0  0.6761214529032936  0.567455110728045  0.3563382749565198  1.0000
  H   H2        1.0  0.5186514261144719  0.5220272210941386  0.7578139909915469  1.0000
  H   H3        1.0  0.8299681792302491  0.522027139828471  0.757813950024192  1.0000
  C   C10       1.0  0.17299567838198707  0.1403938095997872  0.40912829405472384  1.0000
  C   C11       1.0  0.16110793181082597  0.2227043989223938  0.277389306707595  1.0000
  C   C12       1.0  0.1582003194588022  0.15653793358247547  0.1468808282171361  1.0000
  C   C13       1.0  0.16716810967511453  0.007119515858816206  0.14563325028893573  1.0000
  C   C14       1.0  0.1773624254521962  0.9230976223519842  0.27538012153935076  1.0000
  C   C15       1.0  0.178815571119837  0.9873380725420219  0.408403544251734  1.0000
  Br  Br1       1.0  0.16390220548715353  0.9171458737140364  0.9665528153559135  1.0000
  H   H4        1.0  0.14382490920577196  0.4050606552192393  0.6434640866121424  1.0000
  H   H5        1.0  0.15635275200850715  0.33933852590219926  0.2749216871428724  1.0000
  H   H6        1.0  0.14989384595887129  0.22185223193741857  0.046479582417615184  1.0000
  H   H7        1.0  0.18184068316150895  0.8068295994761507  0.27227250967300165  1.0000
  H   H8        1.0  0.23124734374304207  0.6914310360377415  0.6328958710277974  1.0000
  C   C16       1.0  0.1774609318119527  0.5600467021639857  0.9854938795741743  1.0000
  C   C17       1.0  0.25694043981960335  0.6209568860115877  0.0540154714165999  1.0000
  C   C18       1.0  0.331017858195498  0.6926353945781758  0.9741444024902632  1.0000
  C   C19       1.0  0.3258813828529158  0.7037650694733382  0.8226942657098903  1.0000
  C   C20       1.0  0.24842411449816848  0.6419817064584807  0.7528312233944314  1.0000
  C   C21       1.0  0.17435029125335166  0.5676851554918163  0.8320379838735664  1.0000
  O   O1        1.0  0.4078486620043142  0.7517700472859721  0.04930042098743947  1.0000
  C   C22       1.0  0.48786957686303634  0.8276639508575953  0.9821591204674386  1.0000
  H   H9        1.0  0.9472209267297331  0.47147497570420244  0.0965868762822184  1.0000
  H   H10       1.0  0.3818726782407439  0.7588321712120978  0.7577250181112869  1.0000
  H   H11       1.0  0.020767589719259186  0.5023368334535443  0.5566512319100397  1.0000
  H   H12       1.0  0.46262553432026166  0.9252507994230138  0.9176800370032692  1.0000
  H   H13       1.0  0.5276315073983896  0.7560936853168532  0.9118076983954002  1.0000
  H   H14       1.0  0.5375250975038799  0.8621334178071142  0.0669731775987128  1.0000
  Zn  Zn1       1.0  0.07012217450372304  0.5638676665971352  0.40876802000872653  1.0000
  Zn  Zn2       1.0  0.28167982458720675  0.5638635443241566  0.40876320439740366  1.0000
  C   C23       1.0  0.17489665454826692  0.5604964377213961  0.6720279555930596  1.0000
  C   C24       1.0  0.17690766672904368  0.5672365939788455  0.14550340867546654  1.0000
  C   C25       1.0  0.17773162021257716  0.8271957741566427  0.40279677953113247  1.0000
  C   C26       1.0  0.17407261668685314  0.30053552565532216  0.41473466306781753  1.0000
  O   O2        1.0  0.25700696834615444  0.5696417316481373  0.19920224623083183  1.0000
  O   O3        1.0  0.2553647082827062  0.5580870797000135  0.6183250491084009  1.0000
  O   O4        1.0  0.2576528911219622  0.7734501802895266  0.4009189683247596  1.0000
  O   O5        1.0  0.254718713784607  0.35427864040086376  0.41660821893351885  1.0000
  O   O6        1.0  0.09708321311211825  0.773452570523337  0.4009230054666719  1.0000
  O   O7        1.0  0.0947950424565385  0.5580912018250088  0.6183290079139494  1.0000
  O   O8        1.0  0.09643730860662353  0.5696457878834513  0.1992044721188122  1.0000
  O   O9        1.0  0.09414905357316261  0.35428268729684587  0.41661055289651405  1.0000
