data_image0
_chemical_formula_structural       NC9NC3OH6C6NCOH7C7F3H5Zn2C4O8
_chemical_formula_sum              "N3 C30 O10 H18 F3 Zn2"
_cell_length_a       15.78231758774541
_cell_length_b       10.299619329790078
_cell_length_c       9.272291681409872
_cell_angle_alpha    86.06619691581682
_cell_angle_beta     90.4979467289142
_cell_angle_gamma    89.65730562172187

_space_group_name_H-M_alt    "P 1"
_space_group_IT_number       1

loop_
  _space_group_symop_operation_xyz
  'x, y, z'

loop_
  _atom_site_type_symbol
  _atom_site_label
  _atom_site_symmetry_multiplicity
  _atom_site_fract_x
  _atom_site_fract_y
  _atom_site_fract_z
  _atom_site_occupancy
  N   N1        1.0  0.7915838800669187  0.4008333797738329  0.4125947098463083  1.0000
  C   C1        1.0  0.7431412582074536  0.31897947997025766  0.4393165607912895  1.0000
  C   C2        1.0  0.6829979189141291  0.21737889697148005  0.47248526209433583  1.0000
  C   C3        1.0  0.7027995548404847  0.08975150164335327  0.5140623414532769  1.0000
  C   C4        1.0  0.6261367122735991  0.027898917945252684  0.5342949826081007  1.0000
  C   C5        1.0  0.5642533409071377  0.12235815621638335  0.5035690115837637  1.0000
  C   C6        1.0  0.4711817802505583  0.10489488458177566  0.5093516458180627  1.0000
  C   C7        1.0  0.4173194614979051  0.21197483599311595  0.47433670078362566  1.0000
  C   C8        1.0  0.32912893383316016  0.1976554341818747  0.4790862714764228  1.0000
  C   C9        1.0  0.2745666685980526  0.30785086063005385  0.44304339390185876  1.0000
  N   N2        1.0  0.2307115116548456  0.39643375515668877  0.4140681411663254  1.0000
  C   C10       1.0  0.2941196216700901  0.076096725139452  0.5189051576860317  1.0000
  C   C11       1.0  0.34705078600186173  0.9692381963997052  0.5538525472178732  1.0000
  C   C12       1.0  0.4350560838573934  0.9831642102158512  0.5492320428908797  1.0000
  O   O1        1.0  0.6005895723146207  0.23430378469249002  0.4670465504165102  1.0000
  H   H1        1.0  0.7653066156733715  0.046710523266754844  0.5280271747686291  1.0000
  H   H2        1.0  0.6175154420167783  0.9261961122006133  0.567443567570378  1.0000
  H   H3        1.0  0.443821129579231  0.30656902470590586  0.44334530529433813  1.0000
  H   H4        1.0  0.2260168365539652  0.06396891747954392  0.5229254409191134  1.0000
  H   H5        1.0  0.3198180945696397  0.8752907063359732  0.5846325396868575  1.0000
  H   H6        1.0  0.4742352239205374  0.8985248018453659  0.5769219949164148  1.0000
  C   C13       1.0  0.011039195615008877  0.01726588110495997  0.41329352177791856  1.0000
  C   C14       1.0  0.9696013263852052  0.024710032266532126  0.2782247686850978  1.0000
  C   C15       1.0  0.9499815967808829  0.911712137274626  0.20917370233914845  1.0000
  C   C16       1.0  0.9698541357935989  0.789549916028554  0.2783365999280538  1.0000
  C   C17       1.0  0.011264299380985941  0.7799913283996218  0.413381834845202  1.0000
  C   C18       1.0  0.03192165207061781  0.8944610268187897  0.47982540332006923  1.0000
  N   N3        1.0  0.9064065463837353  0.9231478889549344  0.07196447635329428  1.0000
  C   C19       1.0  0.919251343631911  0.837447574000423  0.9585718573488293  1.0000
  O   O2        1.0  0.9787635152993768  0.7551746442311895  0.9648322863420461  1.0000
  H   H7        1.0  0.088401610685936  0.21043932156424727  0.6687840006471979  1.0000
  H   H8        1.0  0.9529585113540054  0.11856286811284122  0.22532927883359075  1.0000
  H   H9        1.0  0.9515251144099794  0.7019474602769061  0.22840588026234565  1.0000
  H   H10       1.0  0.06387557122346534  0.887846718754018  0.5839403382687229  1.0000
  H   H11       1.0  0.026026849178884637  0.44882313693483494  0.4662343567993716  1.0000
  H   H12       1.0  0.8670873807151314  0.003959495214884037  0.04848347159002797  1.0000
  H   H13       1.0  0.8786275762746306  0.8459795873604253  0.8637639147180075  1.0000
  C   C20       1.0  0.009367282624896722  0.39531284892322915  0.989970583066809  1.0000
  C   C21       1.0  0.06632965393999957  0.31300886920734206  0.07037170629332645  1.0000
  C   C22       1.0  0.12789976648703205  0.24229581640129033  0.0017732303590520836  1.0000
  C   C23       1.0  0.13497261506606684  0.2535472455681178  0.850905921461627  1.0000
  C   C24       1.0  0.07632063963997224  0.33156570230996435  0.7693284378935554  1.0000
  C   C25       1.0  0.012936229771401747  0.40194436257698013  0.8367047037477695  1.0000
  C   C26       1.0  0.20000113392599517  0.17424381001007605  0.7765297563933351  1.0000
  F   F1        1.0  0.27094251740600495  0.15160492355891275  0.863684414573449  1.0000
  F   F2        1.0  0.2253815488276254  0.23898070246541162  0.6485499460573223  1.0000
  F   F3        1.0  0.16505602464333669  0.05625012885661151  0.7464398670273846  1.0000
  H   H14       1.0  0.890123314176204  0.6589376616047588  0.0696912331381947  1.0000
  H   H15       1.0  0.06437172075164699  0.30527497268998305  0.1874109345525763  1.0000
  H   H16       1.0  0.17056578575646875  0.17952009005029224  0.06712257525527487  1.0000
  H   H17       1.0  0.0787374677002759  0.3350055812070079  0.6523491514848048  1.0000
  H   H18       1.0  0.8209499496111242  0.5282776711915373  0.7227324834557498  1.0000
  Zn  Zn1       1.0  0.9183066592582341  0.3995603393312288  0.4130282285786919  1.0000
  Zn  Zn2       1.0  0.10398875051753853  0.39769628846423455  0.4136464066459528  1.0000
  C   C27       1.0  0.012258214514007541  0.39551719275127467  0.6766532499469295  1.0000
  C   C28       1.0  0.010039223984534162  0.4017410544114004  0.15002153372152693  1.0000
  C   C29       1.0  0.011193198149602518  0.6357750053674383  0.4076200154936831  1.0000
  C   C30       1.0  0.011104176852042342  0.16148168273568642  0.41905484464675413  1.0000
  O   O3        1.0  0.08073011791328484  0.4031853555828254  0.20397068954382333  1.0000
  O   O4        1.0  0.08249572942147182  0.39265713713329214  0.6231728618448751  1.0000
  O   O5        1.0  0.08163477164976385  0.5866683805722748  0.4059266185629035  1.0000
  O   O6        1.0  0.08159101187138512  0.20917412122350343  0.4212168245178973  1.0000
  O   O7        1.0  0.9407043345401712  0.5880825072094231  0.40545781048821045  1.0000
  O   O8        1.0  0.9415652924445596  0.39407282346745426  0.622703977079665  1.0000
  O   O9        1.0  0.9397996736733505  0.4046009830853004  0.20350007142398185  1.0000
  O   O10       1.0  0.9406605680808415  0.21058974028378066  0.42074631448741706  1.0000
