data_image0
_chemical_formula_structural       NC9NC3SH6C8H6C6SCNH5Zn2C4O8
_chemical_formula_sum              "N3 C31 S2 H17 Zn2 O8"
_cell_length_a       16.77567553997237
_cell_length_b       9.27514070457351
_cell_length_c       10.302218930750287
_cell_angle_alpha    85.68853581932115
_cell_angle_beta     90.41546648822373
_cell_angle_gamma    91.48491386358626

_space_group_name_H-M_alt    "P 1"
_space_group_IT_number       1

loop_
  _space_group_symop_operation_xyz
  'x, y, z'

loop_
  _atom_site_type_symbol
  _atom_site_label
  _atom_site_symmetry_multiplicity
  _atom_site_fract_x
  _atom_site_fract_y
  _atom_site_fract_z
  _atom_site_occupancy
  N   N1        1.0  0.7595694386429649  0.5991701174723956  0.5784322369911785  1.0000
  C   C1        1.0  0.7051436122407101  0.6539449908011794  0.6201504894308707  1.0000
  C   C2        1.0  0.6376003408597972  0.7219169871530909  0.6719196501590872  1.0000
  C   C3        1.0  0.640316647018078  0.8197320971661666  0.7671809220253548  1.0000
  C   C4        1.0  0.5649631311645867  0.868006396533594  0.7987984127226203  1.0000
  C   C5        1.0  0.5026001214456344  0.8079947575797858  0.728059748900683  1.0000
  C   C6        1.0  0.4162778243903249  0.8369388129621411  0.7389760325596479  1.0000
  C   C7        1.0  0.35894156647703646  0.7485610675449408  0.6804959001877797  1.0000
  C   C8        1.0  0.2774559338306566  0.7752725931190018  0.6903505916514462  1.0000
  C   C9        1.0  0.21943490505495966  0.6839314893530584  0.6304685169063027  1.0000
  N   N2        1.0  0.17280309830793109  0.6105063313761618  0.5823321754474104  1.0000
  C   C10       1.0  0.2524786955331006  0.8907100668485682  0.7585251451972096  1.0000
  C   C11       1.0  0.3087242154981957  0.9792642076267292  0.81654419230016  1.0000
  C   C12       1.0  0.3900545704063866  0.9529560465552988  0.8069849728174762  1.0000
  S   S1        1.0  0.5425128666478  0.6946349479217506  0.6267073766387654  1.0000
  H   H1        1.0  0.6949323645865672  0.8551099519496437  0.81302190188352  1.0000
  H   H2        1.0  0.5571463781514315  0.9434039169365896  0.8724418704988491  1.0000
  H   H3        1.0  0.3772096037206857  0.6582835052211271  0.6278480086730485  1.0000
  H   H4        1.0  0.18962023193596766  0.9123186025552307  0.7666618573347614  1.0000
  H   H5        1.0  0.2892715630831006  0.06886268932261785  0.868873090211759  1.0000
  H   H6        1.0  0.4319163455191501  0.024736067808095893  0.8519017310800239  1.0000
  C   C13       1.0  0.9637677103902154  0.18133126317354156  0.5794514079315027  1.0000
  C   C14       1.0  0.9751307142797344  0.26509997679739095  0.46112335458296383  1.0000
  C   C15       1.0  0.9934482465136342  0.2003023957444703  0.34751433652006763  1.0000
  C   C16       1.0  0.0008410760887052074  0.05057497233084839  0.35005235315700167  1.0000
  C   C17       1.0  0.9884564517230237  0.9651976651424933  0.46624289067367214  1.0000
  C   C18       1.0  0.9686123754089555  0.02833432269573199  0.5813243440270821  1.0000
  C   C19       1.0  0.02024576450126947  0.9840567819633881  0.23282449164284566  1.0000
  C   C20       1.0  0.03649300702913849  0.9283491482648194  0.13467964406836308  1.0000
  H   H7        1.0  0.9768712315240264  0.2581553375608801  0.8985959794772865  1.0000
  H   H8        1.0  0.9717012827566509  0.3818312782451974  0.457114200462356  1.0000
  H   H9        1.0  0.002626601956470905  0.267306565222603  0.25784456522904264  1.0000
  H   H10       1.0  0.9924759444120786  0.8487007207861051  0.46612043840452716  1.0000
  H   H11       1.0  0.9743745444718661  0.7299387093142814  0.7963221057586787  1.0000
  H   H12       1.0  0.050754598811854734  0.8794478482747006  0.048529077891745986  1.0000
  C   C21       1.0  0.9661160948746665  0.6048983024048113  0.19911213988039522  1.0000
  C   C22       1.0  0.04083040782601466  0.5397612540734782  0.20345100121558388  1.0000
  C   C23       1.0  0.07797012425042624  0.5068947275345093  0.0886314319718635  1.0000
  C   C24       1.0  0.0410238072291973  0.5395879729368662  0.9682981943057922  1.0000
  C   C25       1.0  0.9662639963374987  0.604767268754149  0.9616635750981904  1.0000
  C   C26       1.0  0.9292068192663386  0.6370114329484289  0.07764204887864423  1.0000
  S   S2        1.0  0.17348358339434533  0.4243113196148729  0.09561105607148979  1.0000
  C   C27       1.0  0.1307770100258221  0.24793296578447732  0.10709279262338423  1.0000
  N   N3        1.0  0.10275516390588102  0.1323080681262152  0.11461982125965031  1.0000
  H   H13       1.0  0.9376931138770804  0.6297556039443262  0.5247912427596437  1.0000
  H   H14       1.0  0.07043642364116698  0.5140384121281234  0.29574500437112117  1.0000
  H   H15       1.0  0.07076238392676992  0.5137462896248535  0.8803259637459163  1.0000
  H   H16       1.0  0.8715822222976731  0.687227831014696  0.07344895249827998  1.0000
  H   H17       1.0  0.8253885143485178  0.7277634748524149  0.7419312973198569  1.0000
  Zn  Zn1       1.0  0.8788197287898972  0.6024376521788348  0.5795651722119959  1.0000
  Zn  Zn2       1.0  0.053552737971119146  0.6072270298964659  0.5812098767204047  1.0000
  C   C28       1.0  0.966201409230103  0.5990466713508209  0.8175123080591706  1.0000
  C   C29       1.0  0.9661729760428219  0.6106198826761347  0.34326289029233914  1.0000
  C   C30       1.0  0.9676915387027519  0.8682334904479356  0.5757963470921705  1.0000
  C   C31       1.0  0.9646827770487276  0.34143132922954567  0.5849789160884518  1.0000
  O   O1        1.0  0.032502296250431995  0.6143513494065858  0.3922653418410293  1.0000
  O   O2        1.0  0.03249039364893468  0.5989491435797574  0.7697577730160713  1.0000
  O   O3        1.0  0.033692798411125935  0.8163208795993211  0.5745704192564816  1.0000
  O   O4        1.0  0.03129983190382735  0.3969796220861739  0.5874525977113327  1.0000
  O   O5        1.0  0.9010725752293964  0.8126850583563181  0.5733224506529848  1.0000
  O   O6        1.0  0.8998701803608576  0.5953150550534192  0.7685097390153789  1.0000
  O   O7        1.0  0.8998820824251325  0.6107172108935313  0.3910157467105815  1.0000
  O   O8        1.0  0.8986796180351485  0.393345473241159  0.5862030999020885  1.0000
