data_image0
_chemical_formula_structural       NC8SNC5NC2H9C7ClCClC6H8C7OC6H9Zn2C4O8
_chemical_formula_sum              "N3 C46 S1 H26 Cl2 O9 Zn2"
_cell_length_a       21.362259523660498
_cell_length_b       17.25489619101054
_cell_length_c       15.448108575614855
_cell_angle_alpha    84.7858317940887
_cell_angle_beta     89.35360640653067
_cell_angle_gamma    90.491514687853

_space_group_name_H-M_alt    "P 1"
_space_group_IT_number       1

loop_
  _space_group_symop_operation_xyz
  'x, y, z'

loop_
  _atom_site_type_symbol
  _atom_site_label
  _atom_site_symmetry_multiplicity
  _atom_site_fract_x
  _atom_site_fract_y
  _atom_site_fract_z
  _atom_site_occupancy
  N   N1        1.0  0.5941454567726439  0.8515180478145261  0.022607913923178072  1.0000
  C   C1        1.0  0.5407753079500361  0.8404277097114249  0.0301492803818748  1.0000
  C   C2        1.0  0.4743887332742768  0.82663255758785  0.03952972945470043  1.0000
  C   C3        1.0  0.4429172697508937  0.8445596715168736  0.1149939641140833  1.0000
  C   C4        1.0  0.378450302528556  0.8311062857132854  0.12417124945153396  1.0000
  C   C5        1.0  0.3445785521028477  0.799723239234863  0.05779400378966379  1.0000
  C   C6        1.0  0.3766612234990393  0.7816094694277721  0.9823205116152571  1.0000
  C   C7        1.0  0.44115525555232393  0.7950463988812589  0.9733126309986735  1.0000
  C   C8        1.0  0.2762365243454485  0.7858742065722842  0.06788158863635446  1.0000
  S   S1        1.0  0.24902151734102715  0.7419756866442663  0.15984576982414356  1.0000
  N   N2        1.0  0.23550939983338415  0.8014321151890559  0.9947152534013413  1.0000
  C   C9        1.0  0.1689309783058541  0.8111604515111497  0.0015975511242526412  1.0000
  C   C10       1.0  0.1299509809085647  0.7834196050827512  0.938539727094273  1.0000
  C   C11       1.0  0.06518368424430432  0.7938427296722386  0.9428001941065729  1.0000
  C   C12       1.0  0.0388422314414344  0.8330798573186338  0.009605149827319854  1.0000
  C   C13       1.0  0.9721801948768699  0.8439235304739461  0.01392349162938022  1.0000
  N   N3        1.0  0.9185876000236263  0.8526409817660232  0.017395874185888834  1.0000
  C   C14       1.0  0.0775808881917059  0.8623001178374264  0.07178387603459646  1.0000
  C   C15       1.0  0.142345822892375  0.8518477179287002  0.06755190785507809  1.0000
  H   H1        1.0  0.46816774972821135  0.8690352597931699  0.16667954667288998  1.0000
  H   H2        1.0  0.35490264154522816  0.8459871370378428  0.1827806244084046  1.0000
  H   H3        1.0  0.3523753222412578  0.7556394094913966  0.9309171673513295  1.0000
  H   H4        1.0  0.46513123087976377  0.7804871384385735  0.914854014274884  1.0000
  H   H5        1.0  0.2549248370571722  0.8066203511539708  0.9321185853412182  1.0000
  H   H6        1.0  0.14982325436781993  0.7531738538284556  0.8864495069338993  1.0000
  H   H7        1.0  0.0357148032241635  0.771472465442441  0.8939665405593649  1.0000
  H   H8        1.0  0.0577865762091288  0.8935647943057975  0.12315956332444816  1.0000
  H   H9        1.0  0.1717109966045362  0.8764764053165084  0.11489273599599731  1.0000
  C   C16       1.0  0.7551051983306295  0.6241671455854716  0.023451348183231455  1.0000
  C   C17       1.0  0.7835849621378923  0.5813080738967705  0.0939090547534493  1.0000
  C   C18       1.0  0.780508583293466  0.500008145523148  0.10223635818022753  1.0000
  C   C19       1.0  0.7495012645147776  0.4601347341388228  0.039955631747201514  1.0000
  C   C20       1.0  0.7202687833595868  0.5027237773257347  0.9702119991458587  1.0000
  C   C21       1.0  0.7232942525576327  0.5840200619191697  0.9617945796499079  1.0000
  C   C22       1.0  0.7454132337013903  0.37427613812805116  0.050590888927270816  1.0000
  Cl  Cl1       1.0  0.7084104864861127  0.33229613140647574  0.14655893114999508  1.0000
  C   C23       1.0  0.7673585141292785  0.32987549269254407  0.989494091292014  1.0000
  Cl  Cl2       1.0  0.8043613078684778  0.3718554472001704  0.8935259830231788  1.0000
  C   C24       1.0  0.7632696881256937  0.24401701857639566  0.00012858147309191244  1.0000
  C   C25       1.0  0.7925022608202221  0.20142760757691128  0.06986973955617665  1.0000
  C   C26       1.0  0.7894712382903681  0.12013455736204899  0.07827224281500329  1.0000
  C   C27       1.0  0.7576338323987174  0.07998591142278588  0.016559898822770203  1.0000
  C   C28       1.0  0.7291781585843404  0.1228412337268191  0.9461601841462468  1.0000
  C   C29       1.0  0.732260732908177  0.20414398571398135  0.9378467776898747  1.0000
  H   H10       1.0  0.8081944146670457  0.6105593059686892  0.14269251191057786  1.0000
  H   H11       1.0  0.802710117950639  0.46810269672624133  0.15703625659066467  1.0000
  H   H12       1.0  0.694786727930592  0.4729824086752257  0.9226100460975184  1.0000
  H   H13       1.0  0.7005057492153662  0.6153578795259216  0.9071703985566959  1.0000
  H   H14       1.0  0.8179855961003125  0.23116337866625422  0.11747482949245577  1.0000
  H   H15       1.0  0.8122546411254363  0.08876339405418131  0.1328897641691571  1.0000
  H   H16       1.0  0.7045651480953363  0.09362382629133326  0.8973640187955398  1.0000
  H   H17       1.0  0.7100599312697499  0.23605498001971395  0.8830498227258587  1.0000
  C   C30       1.0  0.7563542312246795  0.8521014493397885  0.7657371706122926  1.0000
  C   C31       1.0  0.7959297512800662  0.8418970826716606  0.6945113130695852  1.0000
  C   C32       1.0  0.7714637511965498  0.818480732471642  0.6173894035260259  1.0000
  C   C33       1.0  0.7068250383838355  0.8053895152653595  0.6096475158607155  1.0000
  C   C34       1.0  0.6673700589859614  0.8146114758168845  0.6812340168911842  1.0000
  C   C35       1.0  0.6918065432682695  0.8380490396729324  0.7583714660432752  1.0000
  C   C36       1.0  0.6804187615199506  0.779505806243066  0.5285570398494699  1.0000
  O   O1        1.0  0.6333732266589207  0.7345537598734684  0.5338539906659534  1.0000
  C   C37       1.0  0.7073305469278198  0.8045674857469868  0.4414632725393588  1.0000
  C   C38       1.0  0.7342568480259591  0.8789670395771184  0.42341178288226056  1.0000
  C   C39       1.0  0.7587532447733262  0.9023340689660165  0.3407771916896192  1.0000
  C   C40       1.0  0.7563848058369776  0.8520515889992109  0.27427413248251686  1.0000
  C   C41       1.0  0.7287372490108087  0.7780112292524048  0.2920203865387945  1.0000
  C   C42       1.0  0.7042320919274998  0.754685301029362  0.3746682075535879  1.0000
  H   H18       1.0  0.8459156809109428  0.8516636435478447  0.6983796690077586  1.0000
  H   H19       1.0  0.8032593817780351  0.8097736364214764  0.5641354755566981  1.0000
  H   H20       1.0  0.6174379725178124  0.8043312621617554  0.6772494969695326  1.0000
  H   H21       1.0  0.6601147849170392  0.8451304807072227  0.812228188665459  1.0000
  H   H22       1.0  0.7357656180638019  0.9194968372318462  0.47291586122519313  1.0000
  H   H23       1.0  0.7792990737477465  0.9599609096442486  0.32896739087262694  1.0000
  H   H24       1.0  0.725995874322042  0.7380285310734678  0.24204068606300966  1.0000
  H   H25       1.0  0.6833022199726386  0.697256625517408  0.38663130791405886  1.0000
  H   H26       1.0  0.8275902473744207  0.9681676310865718  0.11035777531703234  1.0000
  Zn  Zn1       1.0  0.6877724433121919  0.8518400224878274  0.021108863242408234  1.0000
  Zn  Zn2       1.0  0.824960579294983  0.8523126503567107  0.018902112791521986  1.0000
  C   C43       1.0  0.7563604623211571  0.8489691560069899  0.17819650019313218  1.0000
  C   C44       1.0  0.756374063813713  0.8551845012564656  0.8618145219230029  1.0000
  C   C45       1.0  0.7571524274361159  0.9938267968300206  0.014412181535887745  1.0000
  C   C46       1.0  0.7555820467160358  0.7103259278050098  0.02559890159413102  1.0000
  O   O2        1.0  0.8084428836719896  0.8563951755160759  0.8932215595960824  1.0000
  O   O3        1.0  0.8084142600934436  0.8481166098900512  0.14511434958781366  1.0000
  O   O4        1.0  0.8090530801705126  0.965090984323473  0.01285735255947651  1.0000
  O   O5        1.0  0.807804016808801  0.7394208064797309  0.02547849237129851  1.0000
  O   O6        1.0  0.7049289589828005  0.9647318662043685  0.014532484411120197  1.0000
  O   O7        1.0  0.7042901440728764  0.8477584242389322  0.14678942117406235  1.0000
  O   O8        1.0  0.704318767480473  0.8560369629213981  0.894895590564557  1.0000
  O   O9        1.0  0.7036799005878304  0.7390625883275369  0.02715258834138333  1.0000
