data_image0
_chemical_formula_structural       NC9NC3OH6C8NH6C6SCNH5Zn2C4O8
_chemical_formula_sum              "N4 C31 O9 H17 S1 Zn2"
_cell_length_a       15.78231758774541
_cell_length_b       9.27426342843186
_cell_length_c       10.302218930750287
_cell_angle_alpha    85.51116070618167
_cell_angle_beta     90.10197945546608
_cell_angle_gamma    90.24871893605766

_space_group_name_H-M_alt    "P 1"
_space_group_IT_number       1

loop_
  _space_group_symop_operation_xyz
  'x, y, z'

loop_
  _atom_site_type_symbol
  _atom_site_label
  _atom_site_symmetry_multiplicity
  _atom_site_fract_x
  _atom_site_fract_y
  _atom_site_fract_z
  _atom_site_occupancy
  N   N1        1.0  0.8074991497493366  0.5698554068332566  0.5692974349413689  1.0000
  C   C1        1.0  0.7583961219134198  0.4787102119153692  0.5934275394610115  1.0000
  C   C2        1.0  0.6974330567099156  0.36557687011727547  0.6233792147997187  1.0000
  C   C3        1.0  0.7162053400054514  0.22346317592474851  0.6609239555542942  1.0000
  C   C4        1.0  0.6390432993825842  0.15458930316945985  0.6791941393877159  1.0000
  C   C5        1.0  0.5779215821197868  0.2597696942318368  0.6514480043397566  1.0000
  C   C6        1.0  0.4847087927789646  0.24032343099370504  0.6566695842362588  1.0000
  C   C7        1.0  0.4317106426268801  0.3595586173508474  0.6250508712886875  1.0000
  C   C8        1.0  0.3434042787962712  0.343613146423561  0.6293396005514806  1.0000
  C   C9        1.0  0.2897313624827147  0.46631754386052404  0.5967926803538293  1.0000
  N   N2        1.0  0.2465911330901463  0.564956048610727  0.5706278684150078  1.0000
  C   C10       1.0  0.3074136665841464  0.2082550239268113  0.665296134170064  1.0000
  C   C11       1.0  0.35948242946983067  0.08926635218407795  0.6968538323381841  1.0000
  C   C12       1.0  0.44760038697528043  0.10477377567582202  0.6926816497665178  1.0000
  O   O1        1.0  0.6151609085911485  0.38442214720200135  0.6184677926676274  1.0000
  H   H1        1.0  0.7783654936604246  0.17553734910957308  0.6735345518970541  1.0000
  H   H2        1.0  0.629601696816233  0.04134260914032418  0.7091277791806337  1.0000
  H   H3        1.0  0.45897595726540935  0.4648912384662356  0.5970655920873527  1.0000
  H   H4        1.0  0.2392127837496859  0.19475003906190727  0.6689263429287436  1.0000
  H   H5        1.0  0.33149131026979134  0.9846538394557655  0.7246482131381693  1.0000
  H   H6        1.0  0.4860964074571315  0.010526366594108879  0.7176858169797389  1.0000
  C   C13       1.0  0.024368109494012677  0.14385210924576902  0.57023044776524  1.0000
  C   C14       1.0  0.01339396996648999  0.22735637413553245  0.4515379508965005  1.0000
  C   C15       1.0  0.010730134690680957  0.1624966625186559  0.3339447630914636  1.0000
  C   C16       1.0  0.019663280841992304  0.012615499032270654  0.33213751718417495  1.0000
  C   C17       1.0  0.028363441324389373  0.9276321521872554  0.45002723339584333  1.0000
  C   C18       1.0  0.029730195209398663  0.9909482196464946  0.5697061163643995  1.0000
  C   C19       1.0  0.01552721812447077  0.9426974145634713  0.2054438566085295  1.0000
  C   C20       1.0  0.927613373142295  0.9047473734064032  0.17632131764191294  1.0000
  N   N3        1.0  0.8582248515937266  0.8747928675393501  0.15334410450075334  1.0000
  H   H7        1.0  0.09754240525679542  0.22124664617880274  0.8697920022710215  1.0000
  H   H8        1.0  0.002490214777606915  0.22953323683159255  0.24394172173033682  1.0000
  H   H9        1.0  0.03202146063032129  0.8111020914348305  0.44832808423120435  1.0000
  H   H10       1.0  0.07569901085407094  0.6929025305001122  0.7731413365766838  1.0000
  H   H11       1.0  0.05467287949251462  0.843144414074611  0.2105870233964815  1.0000
  H   H12       1.0  0.040532798663113656  0.01724643608389376  0.12472048260282301  1.0000
  C   C21       1.0  0.026970580724950715  0.5674685805697537  0.18869282397695297  1.0000
  C   C22       1.0  0.10634318219465144  0.49937359451433677  0.19275489643446853  1.0000
  C   C23       1.0  0.14579836258155654  0.4650365444253586  0.07779910111739798  1.0000
  C   C24       1.0  0.10654863848314128  0.49919265513693034  0.9576013861122559  1.0000
  C   C25       1.0  0.027127703020285866  0.5673316908043847  0.9512437171191053  1.0000
  C   C26       1.0  0.987760068912733  0.6010429266606211  0.06735964965466001  1.0000
  S   S1        1.0  0.24726706926324582  0.3786719908617273  0.08442296392467208  1.0000
  C   C27       1.0  0.20184378809081893  0.20391291808327905  0.0966599860168016  1.0000
  N   N4        1.0  0.1720394054044193  0.08935054424348055  0.10468229920534135  1.0000
  H   H13       1.0  0.9967755031670891  0.5934511731998617  0.5144770062303374  1.0000
  H   H14       1.0  0.13779509638841614  0.4724786806504957  0.2849389739427617  1.0000
  H   H15       1.0  0.13814137763823187  0.4721736507294738  0.8695187479641469  1.0000
  H   H16       1.0  0.9265426877003778  0.6535406738146803  0.0633800914038245  1.0000
  H   H17       1.0  0.8774689607214357  0.6959052134502306  0.7320328309023156  1.0000
  Zn  Zn1       1.0  0.9342115847439153  0.5684377038439885  0.5696888633177395  1.0000
  Zn  Zn2       1.0  0.11987859727437161  0.5663619777768107  0.5702470610426904  1.0000
  C   C28       1.0  0.02705975276192783  0.5616116389353487  0.8071088243823787  1.0000
  C   C29       1.0  0.027032468280340432  0.5731898398692203  0.3328272323822681  1.0000
  C   C30       1.0  0.028711214923288413  0.8308299646243287  0.5646312944230852  1.0000
  C   C31       1.0  0.025380931808931962  0.30396978198255153  0.5753048324454044  1.0000
  O   O2        1.0  0.09751286212189075  0.5743159270791547  0.3814118935497288  1.0000
  O   O3        1.0  0.09749631842415946  0.5589090356432238  0.7589474492914539  1.0000
  O   O4        1.0  0.09882894545328175  0.776306248744105  0.5631451244965928  1.0000
  O   O5        1.0  0.09618017178244459  0.35691872502190103  0.5772141207969246  1.0000
  O   O6        1.0  0.9579099468768113  0.7778809573088128  0.5627218033661894  1.0000
  O   O7        1.0  0.9565773307987064  0.5604854771155356  0.7585240578598914  1.0000
  O   O8        1.0  0.9565938739129564  0.5758923185691369  0.3809869411314298  1.0000
  O   O9        1.0  0.9552611835248035  0.3584951061781705  0.5767892657289755  1.0000
