data_image0
_chemical_formula_structural       NC9NC3OCH8C13OH12C13F3H9Zn2C4O8
_chemical_formula_sum              "N2 C43 O10 H29 F3 Zn2"
_cell_length_a       17.728193572023454
_cell_length_b       10.299150109392551
_cell_length_c       10.298532869026799
_cell_angle_alpha    85.5582241043329
_cell_angle_beta     90.71056303588647
_cell_angle_gamma    88.43520969070386

_space_group_name_H-M_alt    "P 1"
_space_group_IT_number       1

loop_
  _space_group_symop_operation_xyz
  'x, y, z'

loop_
  _atom_site_type_symbol
  _atom_site_label
  _atom_site_symmetry_multiplicity
  _atom_site_fract_x
  _atom_site_fract_y
  _atom_site_fract_z
  _atom_site_occupancy
  N   N1        1.0  0.7102617710119757  0.38661378169064453  0.5845873940340212  1.0000
  C   C1        1.0  0.6496542880241268  0.3491864729104013  0.5976066803610258  1.0000
  C   C2        1.0  0.574206299485299  0.3026593390820149  0.613810330990114  1.0000
  C   C3        1.0  0.5623225581825388  0.17461310980328434  0.6232758313847608  1.0000
  C   C4        1.0  0.4856183706824908  0.12516185914541733  0.6382448842701811  1.0000
  C   C5        1.0  0.4274621061816411  0.207844041255578  0.6556875758752998  1.0000
  C   C6        1.0  0.3494195426530923  0.1627987407332185  0.6774392289938904  1.0000
  C   C7        1.0  0.2880667735231738  0.2482641422499139  0.6419450284683925  1.0000
  C   C8        1.0  0.2137974271046829  0.20896406934093095  0.6621083586464531  1.0000
  C   C9        1.0  0.1514655056932727  0.2969658780439377  0.6245387578662718  1.0000
  N   N2        1.0  0.1013640514840905  0.36771080577629683  0.5943363502906169  1.0000
  C   C10       1.0  0.2002494609520734  0.08407904700181934  0.7188201044580138  1.0000
  C   C11       1.0  0.2607036092249459  0.9989316442975624  0.7557228740609232  1.0000
  C   C12       1.0  0.33486938307038083  0.03774208712676197  0.7356893081684392  1.0000
  O   O1        1.0  0.44080376956126033  0.34164085176418424  0.6543457826573225  1.0000
  C   C13       1.0  0.5085190972705141  0.3990116804642245  0.6057124550412616  1.0000
  H   H1        1.0  0.6092571446694138  0.10514574948230804  0.6211984760236628  1.0000
  H   H2        1.0  0.4779771990846324  0.02150308069344153  0.6362979561697011  1.0000
  H   H3        1.0  0.2979445642084828  0.3450846898282031  0.5974813693831984  1.0000
  H   H4        1.0  0.1430392750811787  0.05279285129017098  0.734972380175271  1.0000
  H   H5        1.0  0.2500890743071797  0.9027701571146193  0.8006474795941855  1.0000
  H   H6        1.0  0.3804096959523122  0.9705153720764794  0.7681353663755763  1.0000
  H   H7        1.0  0.49903960066916964  0.43491353396518284  0.5021653532249897  1.0000
  H   H8        1.0  0.5213951741441536  0.4834217022116319  0.6622702619274459  1.0000
  C   C14       1.0  0.9058876725203697  0.9957590868962994  0.5896078741508117  1.0000
  C   C15       1.0  0.9045053600168811  0.9840638404388333  0.7263938691518435  1.0000
  C   C16       1.0  0.9037388197523453  0.8610025954788969  0.7954819217078689  1.0000
  C   C17       1.0  0.9043598399618673  0.7488154171509687  0.7260268209798582  1.0000
  C   C18       1.0  0.9057454045397334  0.7585551268423194  0.5893273121540907  1.0000
  C   C19       1.0  0.9065032992521902  0.8824879138466009  0.5219167518207326  1.0000
  C   C20       1.0  0.9022699048868094  0.8496123917026677  0.9400957020956712  1.0000
  C   C21       1.0  0.8558696811068023  0.7589957343498992  0.006965334366609062  1.0000
  C   C22       1.0  0.854462431609922  0.7483601816950463  0.1430461339598077  1.0000
  C   C23       1.0  0.8999249387842043  0.8271607121723881  0.21472967790137598  1.0000
  C   C24       1.0  0.9456032018063373  0.918766096147169  0.14848466667172477  1.0000
  C   C25       1.0  0.9470279689552422  0.9295765990722848  0.012404015005039404  1.0000
  C   C26       1.0  0.8968259651382862  0.8181630185921598  0.3607490830481054  1.0000
  O   O2        1.0  0.8404239185571466  0.9040768709632462  0.3995866727406873  1.0000
  H   H9        1.0  0.908006566994445  0.22515094532092814  0.33140567735228355  1.0000
  H   H10       1.0  0.9029754773577172  0.07092615376742996  0.7793680785380903  1.0000
  H   H11       1.0  0.9047934066069202  0.6536868036199857  0.7788748979234197  1.0000
  H   H12       1.0  0.9075698912577931  0.8907167551445386  0.4164762770608774  1.0000
  H   H13       1.0  0.9062275475454646  0.4348283477711874  0.5367466206147371  1.0000
  H   H14       1.0  0.8197764364316787  0.6977170070373198  0.9539532456884766  1.0000
  H   H15       1.0  0.8177549575101901  0.6788188069339967  0.19251027296862677  1.0000
  H   H16       1.0  0.9803064173518826  0.9816651858591359  0.20220836505085016  1.0000
  H   H17       1.0  0.9837607738128804  0.9995624080347671  0.9637472080014114  1.0000
  H   H18       1.0  0.9523385682844826  0.8433203654531963  0.4023056994290394  1.0000
  H   H19       1.0  0.8845641528622364  0.7167449340970717  0.3982587035836058  1.0000
  H   H20       1.0  0.8407089139386044  0.8944128588310244  0.49622732449703166  1.0000
  C   C27       1.0  0.9057948710816345  0.37703622263946923  0.20806960353640402  1.0000
  C   C28       1.0  0.9814743393350038  0.33248380804145183  0.21218402017164698  1.0000
  C   C29       1.0  0.019821670676569255  0.3100274428699521  0.09709792685674068  1.0000
  C   C30       1.0  0.9815188434388954  0.3327372942637762  0.9768843601538677  1.0000
  C   C31       1.0  0.9058382014339574  0.37727805982285467  0.9708655692880845  1.0000
  C   C32       1.0  0.8684595255884071  0.39913791266155535  0.08696770510179008  1.0000
  C   C33       1.0  0.09983288812059857  0.26293710546906457  0.10238227861571647  1.0000
  C   C34       1.0  0.15193103589404378  0.3150238926251532  0.012119428101010186  1.0000
  C   C35       1.0  0.2272322991979321  0.2708077017015267  0.017114160175229372  1.0000
  C   C36       1.0  0.2518059777879462  0.17221612694852673  0.11123358835771224  1.0000
  C   C37       1.0  0.20014432516970618  0.12192743344000245  0.20308398554606777  1.0000
  C   C38       1.0  0.12484796812337673  0.16617644484601682  0.1982002847440436  1.0000
  C   C39       1.0  0.3336337854713707  0.12797141383757804  0.11957146030544963  1.0000
  F   F1        1.0  0.37232075997520786  0.20542248070439317  0.1999916794979768  1.0000
  F   F2        1.0  0.3657705130318052  0.1375922255142772  0.997511261190331  1.0000
  F   F3        1.0  0.3406465242130005  0.9995011162979998  0.16967889230247768  1.0000
  H   H21       1.0  0.7629325076744101  0.46203536390876754  0.40756009916746766  1.0000
  H   H22       1.0  0.011030094640011704  0.31689462872586116  0.30500490036926964  1.0000
  H   H23       1.0  0.010504549643691526  0.31395343038084067  0.8879825186055275  1.0000
  H   H24       1.0  0.8101316177086565  0.4334701017972187  0.08306351449839111  1.0000
  H   H25       1.0  0.762691089846957  0.46070730160457934  0.7522202965099001  1.0000
  H   H26       1.0  0.13471995304057627  0.391626059306202  0.9389336036556162  1.0000
  H   H27       1.0  0.2663486188378634  0.314147014949995  0.9475874975067188  1.0000
  H   H28       1.0  0.21795820207233185  0.04818789884296315  0.27872666359163034  1.0000
  H   H29       1.0  0.08600328023218773  0.12377810593191918  0.2687530488479162  1.0000
  Zn  Zn1       1.0  0.8231254534184101  0.38115532288145215  0.5874082337838817  1.0000
  Zn  Zn2       1.0  0.9885003972555879  0.3731586632891075  0.5915261529203257  1.0000
  C   C40       1.0  0.9058292945011965  0.3720582705269782  0.8266826519111725  1.0000
  C   C41       1.0  0.9057983617636425  0.3822572671269086  0.35225190663395023  1.0000
  C   C42       1.0  0.9057681171763893  0.6143690240488391  0.5842046631018867  1.0000
  C   C43       1.0  0.9058594829525114  0.1399449559135204  0.5947299638559731  1.0000
  O   O3        1.0  0.9685584636526668  0.3809691404630404  0.402203535610911  1.0000
  O   O4        1.0  0.9685849486303687  0.3672761376616838  0.7798560547624948  1.0000
  O   O5        1.0  0.9685347012232284  0.562945176905516  0.5840533416636042  1.0000
  O   O6        1.0  0.9686086546212763  0.185300113208108  0.5980061499191287  1.0000
  O   O7        1.0  0.8430171396183694  0.5690138756927301  0.580928235373003  1.0000
  O   O8        1.0  0.8430673867270955  0.37334639687070426  0.776730878647081  1.0000
  O   O9        1.0  0.8430409017193174  0.38703935391459715  0.39907679799371776  1.0000
  O   O10       1.0  0.8430910926921051  0.19137031740104393  0.5948795096805328  1.0000
