data_image0
_chemical_formula_structural       NC9NC3OH6C7OC4NC3H7C7OC3FC3H8Zn2C4O8
_chemical_formula_sum              "N3 C43 O11 H21 F1 Zn2"
_cell_length_a       15.78231758774541
_cell_length_b       10.299371701877257
_cell_length_c       10.29938172300155
_cell_angle_alpha    85.59571719418345
_cell_angle_beta     90.06753164669175
_cell_angle_gamma    89.64160960478581

_space_group_name_H-M_alt    "P 1"
_space_group_IT_number       1

loop_
  _space_group_symop_operation_xyz
  'x, y, z'

loop_
  _atom_site_type_symbol
  _atom_site_label
  _atom_site_symmetry_multiplicity
  _atom_site_fract_x
  _atom_site_fract_y
  _atom_site_fract_z
  _atom_site_occupancy
  N   N1        1.0  0.7982898626750993  0.4128936022724454  0.5704157897066062  1.0000
  C   C1        1.0  0.7497447573161444  0.3308362788608439  0.5944667262553609  1.0000
  C   C2        1.0  0.6894742093841654  0.22898319476533446  0.624320134983237  1.0000
  C   C3        1.0  0.7091164371800641  0.10103928657227801  0.6617414178747933  1.0000
  C   C4        1.0  0.6323759764164183  0.03903268009133809  0.6799517871867851  1.0000
  C   C5        1.0  0.5706103844349337  0.13372582622959794  0.6522970350494917  1.0000
  C   C6        1.0  0.4775166016224738  0.1162185352717362  0.6575017417889533  1.0000
  C   C7        1.0  0.42378860363408477  0.22356504132739663  0.6259865829965978  1.0000
  C   C8        1.0  0.33557981948928867  0.20920948438168918  0.6302614784032752  1.0000
  C   C9        1.0  0.2811558232790739  0.3196792905142587  0.5978211233325446  1.0000
  N   N2        1.0  0.23741182305811212  0.40848276175773507  0.5717419756962663  1.0000
  C   C10       1.0  0.30041772027681435  0.08734765170810731  0.6661004703750624  1.0000
  C   C11       1.0  0.3532148203464701  0.9802230827000993  0.6975548295347962  1.0000
  C   C12       1.0  0.4412378793364857  0.9941842691297021  0.6933961004740739  1.0000
  O   O1        1.0  0.6070866739731852  0.24594948724142784  0.6194251004847193  1.0000
  H   H1        1.0  0.7715699873145673  0.05789199722402082  0.6743103675253019  1.0000
  H   H2        1.0  0.623627603920024  0.9370775252471578  0.7097870503062107  1.0000
  H   H3        1.0  0.45040919010717295  0.31839515376334204  0.5980927708988248  1.0000
  H   H4        1.0  0.2322994831995934  0.07518924041559982  0.6697189620642543  1.0000
  H   H5        1.0  0.3258640214490511  0.8860412782404923  0.7252583686500373  1.0000
  H   H6        1.0  0.4803107909175734  0.9093340686076345  0.7183184179061701  1.0000
  C   C13       1.0  0.017810589983033188  0.02931812731589467  0.5709517610850241  1.0000
  C   C14       1.0  0.021953126500544585  0.03858225350636114  0.4343027070441483  1.0000
  C   C15       1.0  0.023080408161215697  0.9260955575606957  0.3653154095022286  1.0000
  C   C16       1.0  0.021963548311179738  0.803313914715557  0.4346201266608112  1.0000
  C   C17       1.0  0.017899179534325058  0.7920481636648937  0.5712172342218205  1.0000
  C   C18       1.0  0.015623289627660245  0.9056536685957947  0.6385761982237659  1.0000
  C   C19       1.0  0.028344499365836162  0.9357251547952676  0.22108483373087084  1.0000
  O   O2        1.0  0.06913578607566956  0.849554465453441  0.16626349525254036  1.0000
  C   C20       1.0  0.9873191528533646  0.04302944689664878  0.13905074582656352  1.0000
  C   C21       1.0  0.023630750710417855  0.08727813858874067  0.019193059467641493  1.0000
  C   C22       1.0  0.9848395085933064  0.18755073280521065  0.9402870463250154  1.0000
  C   C23       1.0  0.022795309262595886  0.23296639784502848  0.8182482296437125  1.0000
  N   N3        1.0  0.05331008073095009  0.26947098463926533  0.7201467298249744  1.0000
  C   C24       1.0  0.909104264347954  0.24350022969276194  0.9802291851326732  1.0000
  C   C25       1.0  0.8720777216205666  0.19904764504846792  0.09834520486672726  1.0000
  C   C26       1.0  0.9106256842838218  0.0990749659932213  0.17723908596012783  1.0000
  H   H7        1.0  0.025256836891742525  0.13345919723656488  0.3814273481170125  1.0000
  H   H8        1.0  0.023460562290015922  0.7164477172905577  0.38161367817769976  1.0000
  H   H9        1.0  0.012430160204589974  0.8977078079772439  0.7439228803511857  1.0000
  H   H10       1.0  0.08239727815089966  0.044588578657351434  0.9877944158152041  1.0000
  H   H11       1.0  0.8785704461018117  0.32100766568501427  0.9198989496084433  1.0000
  H   H12       1.0  0.8131667311436698  0.2417545447644318  0.1285904341380133  1.0000
  H   H13       1.0  0.8799971157254399  0.06469592443521832  0.26730072384169756  1.0000
  C   C27       1.0  0.01792620234568454  0.41058129856481074  0.18971701301003452  1.0000
  C   C28       1.0  0.044724922592797894  0.27985739776457574  0.19861382819618842  1.0000
  C   C29       1.0  0.059162028208032486  0.21437086240786618  0.08589530330489437  1.0000
  C   C30       1.0  0.044643915997588636  0.2801513461240747  0.9633476354599738  1.0000
  C   C31       1.0  0.017783535168729867  0.410784977680154  0.9524520080293494  1.0000
  C   C32       1.0  0.004793692324055244  0.4753458427539594  0.06622727624664915  1.0000
  C   C33       1.0  0.08660198609128988  0.07592652624607155  0.09517542514750432  1.0000
  O   O3        1.0  0.06049613247559882  0.002944504591483763  0.010889858958079698  1.0000
  C   C34       1.0  0.1436635105332229  0.020280151812681165  0.19997381935158762  1.0000
  C   C35       1.0  0.13682237351085025  0.8883877645287744  0.24518042294539644  1.0000
  C   C36       1.0  0.19099764872327352  0.8346363619821769  0.3428820038687468  1.0000
  F   F1        1.0  0.18347968327905184  0.7076444571490139  0.38648391586871056  1.0000
  C   C37       1.0  0.25289020859727973  0.9116384047397783  0.39556383733199013  1.0000
  C   C38       1.0  0.2609514135276336  0.04231308659056653  0.35029544083485553  1.0000
  C   C39       1.0  0.2069442083022266  0.09647457206165576  0.2526654865296427  1.0000
  H   H14       1.0  0.9661089877856239  0.6566724361911785  0.380291296378364  1.0000
  H   H15       1.0  0.05349735554753174  0.2283787126424195  0.293428042269017  1.0000
  H   H16       1.0  0.055140178477838225  0.22949633354632007  0.8763359516893411  1.0000
  H   H17       1.0  0.9841334782343042  0.5761239320868257  0.05856443802066047  1.0000
  H   H18       1.0  0.08908287232343443  0.8273509068804665  0.2056419109528036  1.0000
  H   H19       1.0  0.2948550539780448  0.8700083750404464  0.4710929282669818  1.0000
  H   H20       1.0  0.30935557496789157  0.10159552703534945  0.3904742764059101  1.0000
  H   H21       1.0  0.21528654578277695  0.19734988166858036  0.2174650617679892  1.0000
  Zn  Zn1       1.0  0.9250109694358679  0.41161726199382387  0.5708059905670659  1.0000
  Zn  Zn2       1.0  0.11069068458830172  0.409748505370658  0.5713623874258908  1.0000
  C   C40       1.0  0.017808033721368192  0.40557283121800847  0.80827693785384  1.0000
  C   C41       1.0  0.01789564808599729  0.4157945543980821  0.3338915742512705  1.0000
  C   C42       1.0  0.01787903854189275  0.647874628529105  0.5659918922850102  1.0000
  C   C43       1.0  0.01782457971179484  0.17349119743605557  0.5761766883255277  1.0000
  O   O4        1.0  0.08834987736166305  0.4168293215221963  0.3824890217909114  1.0000
  O   O5        1.0  0.08828041186636915  0.40311874123180896  0.7601014084702598  1.0000
  O   O6        1.0  0.08833679900943792  0.5987805168057734  0.5644545175901043  1.0000
  O   O7        1.0  0.08829342687797427  0.22116755585015402  0.5781358151101366  1.0000
  O   O8        1.0  0.9474081637828229  0.6001982121534546  0.5640325626861191  1.0000
  O   O9        1.0  0.9473517768300599  0.40453799686954744  0.7596793848641457  1.0000
  O   O10       1.0  0.9474212426684451  0.41824853148624913  0.3820654367743741  1.0000
  O   O11       1.0  0.9473647921620039  0.2225867565514119  0.5777123274578284  1.0000
