data_image0
_chemical_formula_structural       NC7OC2OC6NC2H14C10H10C6H6Zn2C4O8
_chemical_formula_sum              "N2 C37 O10 H30 Zn2"
_cell_length_a       23.32237014671696
_cell_length_b       15.491143632010285
_cell_length_c       10.681121600428288
_cell_angle_alpha    82.99762469271862
_cell_angle_beta     88.62255012075855
_cell_angle_gamma    89.7490974063214

_space_group_name_H-M_alt    "P 1"
_space_group_IT_number       1

loop_
  _space_group_symop_operation_xyz
  'x, y, z'

loop_
  _atom_site_type_symbol
  _atom_site_label
  _atom_site_symmetry_multiplicity
  _atom_site_fract_x
  _atom_site_fract_y
  _atom_site_fract_z
  _atom_site_occupancy
  N   N1        1.0  0.5336027132022558  0.9564242749957279  0.5276510706419772  1.0000
  C   C1        1.0  0.48519931296002694  0.9435335705435667  0.5174710981602324  1.0000
  C   C2        1.0  0.4249908188583041  0.9274991853837717  0.5048076775648289  1.0000
  C   C3        1.0  0.3895677892035327  0.9093950264605385  0.6124030878424858  1.0000
  C   C4        1.0  0.33108816651205236  0.8938265262763497  0.6000489006012979  1.0000
  C   C5        1.0  0.3073784155586139  0.8961533221675329  0.480462984822994  1.0000
  C   C6        1.0  0.3431865628682858  0.9143925040281534  0.3724341082365106  1.0000
  C   C7        1.0  0.4016797405232619  0.9299605806770496  0.3848497454645514  1.0000
  O   O1        1.0  0.2484874846042606  0.8801075838647467  0.4731065645733765  1.0000
  C   C8        1.0  0.2186753457221078  0.8805036717321265  0.35811099641670663  1.0000
  C   C9        1.0  0.1554470407212879  0.8604266421241853  0.38753994636340705  1.0000
  O   O2        1.0  0.1256777582383634  0.8555093198812431  0.27462883527886683  1.0000
  C   C10       1.0  0.0996827786824982  0.9360078089058053  0.23127067325204773  1.0000
  C   C11       1.0  0.0410201183138215  0.9423261753949418  0.29147631401220386  1.0000
  C   C12       1.0  0.996901958492421  0.8870341944309278  0.26304240024287573  1.0000
  C   C13       1.0  0.9425130774599326  0.8917884001092902  0.3198219390085275  1.0000
  C   C14       1.0  0.931805718697907  0.9516868037882955  0.40579060683319  1.0000
  C   C15       1.0  0.8758263592337869  0.9565207384419994  0.4643046310613721  1.0000
  N   N2        1.0  0.8308220878807901  0.960406771676627  0.5113476933013983  1.0000
  C   C16       1.0  0.975727589167546  0.006770348437745929  0.4348477376314457  1.0000
  C   C17       1.0  0.0301277953556338  0.002072757264858007  0.3780898372335461  1.0000
  H   H1        1.0  0.4071181204688217  0.9073141884196512  0.7057279625816604  1.0000
  H   H2        1.0  0.3040242096735781  0.8798830465028071  0.6837994968119432  1.0000
  H   H3        1.0  0.326293509651858  0.9166820530900721  0.2786846707909747  1.0000
  H   H4        1.0  0.4287042687296552  0.943906354563027  0.3009406508210508  1.0000
  H   H5        1.0  0.22285020048805687  0.9454828755788883  0.30184118590055165  1.0000
  H   H6        1.0  0.2371850767208672  0.8301846103092216  0.3030746769476413  1.0000
  H   H7        1.0  0.1524038334692739  0.7958718328511932  0.4452803801973086  1.0000
  H   H8        1.0  0.136653545401084  0.9084316047526052  0.44678068857708  1.0000
  H   H9        1.0  0.1269781258709549  0.9928853965984431  0.2449389987052304  1.0000
  H   H10       1.0  0.09469487420953812  0.938943898105535  0.12769813840389777  1.0000
  H   H11       1.0  0.0046945695133501  0.8402569627048825  0.1969955206745535  1.0000
  H   H12       1.0  0.9088824580428809  0.8487468859686593  0.29682881915497106  1.0000
  H   H13       1.0  0.9679481088154727  0.053228258749885335  0.5014173990719266  1.0000
  H   H14       1.0  0.0637005281571493  0.044900066167347735  0.40185069535597834  1.0000
  C   C18       1.0  0.6839394703672879  0.7037230393516676  0.5359815406845132  1.0000
  C   C19       1.0  0.6762944196304008  0.6454077240253624  0.45488370530278743  1.0000
  C   C20       1.0  0.6795293472721754  0.5498927851638158  0.4904195097261861  1.0000
  C   C21       1.0  0.7088893460432736  0.511881301755549  0.5969987962801038  1.0000
  C   C22       1.0  0.7111056847235604  0.4214811613025523  0.6259459491419779  1.0000
  C   C23       1.0  0.6849012238546168  0.36693170291787397  0.5485901319724293  1.0000
  C   C24       1.0  0.6555412679709863  0.4049431868990135  0.4420108430712748  1.0000
  C   C25       1.0  0.6533248435157648  0.49534332620626503  0.41306369490387324  1.0000
  C   C26       1.0  0.6881361943838591  0.2714167646292004  0.5841259340485914  1.0000
  C   C27       1.0  0.6804908439129598  0.2131013743502049  0.5030282118818292  1.0000
  H   H15       1.0  0.6847647109984315  0.9200956276666363  0.563210092090753  1.0000
  H   H16       1.0  0.692302029809208  0.6828413173710125  0.6341269461109884  1.0000
  H   H17       1.0  0.6653749942524401  0.6684017846434225  0.35843391847170825  1.0000
  H   H18       1.0  0.7310951645089655  0.5511911125913311  0.6572986433244976  1.0000
  H   H19       1.0  0.7340143376312035  0.39398180854000664  0.7085237270764071  1.0000
  H   H20       1.0  0.6333353632917511  0.3656334396566246  0.38171099822804555  1.0000
  H   H21       1.0  0.6304162759444478  0.5228427448536941  0.3304859097816639  1.0000
  H   H22       1.0  0.6990557483845716  0.2484227119332013  0.6805756195469588  1.0000
  H   H23       1.0  0.6721280276244945  0.23398302195104265  0.4048829173230821  1.0000
  H   H24       1.0  0.679665131239667  0.9967288196590001  0.4758000609658887  1.0000
  C   C28       1.0  0.6822151801882607  0.9584121985419164  0.15175964579025658  1.0000
  C   C29       1.0  0.641492447356163  0.9096256167789167  0.09570940747857959  1.0000
  C   C30       1.0  0.6414924111727274  0.9096256719117696  0.9648272658920386  1.0000
  C   C31       1.0  0.6822151348151722  0.9584122404532188  0.8872500811891987  1.0000
  C   C32       1.0  0.7229042573679078  0.007158394581585393  0.9433041836435838  1.0000
  C   C33       1.0  0.7229042501213877  0.007158381034427338  0.07419648357916486  1.0000
  H   H25       1.0  0.7233966548118891  0.007748832422249443  0.4395845898137964  1.0000
  H   H26       1.0  0.6095720469163264  0.8713843882654384  0.15295726536998533  1.0000
  H   H27       1.0  0.6095720346622654  0.8713844289306708  0.924453234160314  1.0000
  H   H28       1.0  0.7548288259048127  0.045404661792729055  0.8861001083102834  1.0000
  H   H29       1.0  0.7548287972151019  0.04540463100150458  0.11452447934663024  1.0000
  H   H30       1.0  0.7233968358513992  0.007748532646452807  0.5776555738306617  1.0000
  Zn  Zn1       1.0  0.6193738225074726  0.9575712096855068  0.5229536553175589  1.0000
  Zn  Zn2       1.0  0.7450510240135835  0.9592527195034269  0.5160558443136789  1.0000
  C   C34       1.0  0.682237271584413  0.9549570227106764  0.7484502530957235  1.0000
  C   C35       1.0  0.6821889399188996  0.9618680191720798  0.290559223328718  1.0000
  C   C36       1.0  0.6811397726508052  0.11681799149301644  0.5042669516161726  1.0000
  C   C37       1.0  0.6832864030224293  0.8000060077872171  0.5347426613394335  1.0000
  O   O3        1.0  0.7298740020612664  0.9636621645623137  0.3345241909586594  1.0000
  O   O4        1.0  0.7299383018424304  0.9544384500692108  0.6992496883557275  1.0000
  O   O5        1.0  0.729051414637912  0.08514322077010764  0.5020699217202094  1.0000
  O   O6        1.0  0.7307608463386676  0.8329573994919889  0.531703865650412  1.0000
  O   O7        1.0  0.6336639572949215  0.08386652912407255  0.5073056363280621  1.0000
  O   O8        1.0  0.634550837442051  0.9531628004528264  0.7044852687796523  1.0000
  O   O9        1.0  0.6344865379037034  0.962386484722757  0.33975826771317097  1.0000
  O   O10       1.0  0.6353733822207543  0.8316817134489886  0.5369380366959258  1.0000
