data_image0
_chemical_formula_structural       NC5NC3BrH3C6NH7C6NCOH5Zn2C4O8
_chemical_formula_sum              "N4 C25 Br1 H15 O9 Zn2"
_cell_length_a       13.839083392302014
_cell_length_b       9.274771166103582
_cell_length_c       9.27373355559583
_cell_angle_alpha    86.06900368676713
_cell_angle_beta     90.01178760078571
_cell_angle_gamma    90.6230172981901

_space_group_name_H-M_alt    "P 1"
_space_group_IT_number       1

loop_
  _space_group_symop_operation_xyz
  'x, y, z'

loop_
  _atom_site_type_symbol
  _atom_site_label
  _atom_site_symmetry_multiplicity
  _atom_site_fract_x
  _atom_site_fract_y
  _atom_site_fract_z
  _atom_site_occupancy
  N   N1        1.0  0.9206025705756801  0.5621826426402956  0.4073809275136324  1.0000
  C   C1        1.0  0.8481558167822569  0.49854572271390313  0.4099613235820957  1.0000
  C   C2        1.0  0.7578937694191675  0.4193593902178885  0.41317207078073515  1.0000
  C   C3        1.0  0.6708690848747285  0.49555383731951963  0.4100828290185312  1.0000
  C   C4        1.0  0.5823008781592794  0.42083200506639806  0.4131123048104046  1.0000
  C   C5        1.0  0.4930901828395254  0.4993776751310021  0.4099275737367558  1.0000
  N   N2        1.0  0.42137638828769886  0.5625222340511888  0.40736710260690423  1.0000
  C   C6        1.0  0.5806893490418185  0.26960424605632394  0.419243699060516  1.0000
  C   C7        1.0  0.6672681413648347  0.19328853912587315  0.4223377658492038  1.0000
  C   C8        1.0  0.7560273919645008  0.2672962991922896  0.4193372616550567  1.0000
  Br  Br1       1.0  0.8726619430076819  0.15721394470139516  0.4238005410641874  1.0000
  H   H1        1.0  0.6720627930475532  0.6127425494571539  0.40533131801302646  1.0000
  H   H2        1.0  0.5125841096554297  0.2107559201482485  0.4216293840529669  1.0000
  H   H3        1.0  0.6653129753627532  0.07634901122849413  0.4270787964430831  1.0000
  C   C9        1.0  0.16802766471561226  0.13876230048717741  0.40815966067973797  1.0000
  C   C10       1.0  0.14576576017934878  0.22067198430137183  0.27927938832323695  1.0000
  C   C11       1.0  0.1325255232457867  0.15422086771589893  0.14958117402118698  1.0000
  C   C12       1.0  0.14159765551566594  0.004472540692997738  0.14782381175941708  1.0000
  C   C13       1.0  0.16207237100815153  0.9212232051950685  0.2749336868075774  1.0000
  C   C14       1.0  0.17396047743730025  0.9859316255027278  0.40660091029202694  1.0000
  N   N3        1.0  0.11085700692211375  0.23921524121932358  0.019284409699727115  1.0000
  H   H4        1.0  0.2768397413058876  0.22188340553451447  0.7235678402775496  1.0000
  H   H5        1.0  0.14089351833430097  0.33725544375668437  0.27872591612914266  1.0000
  H   H6        1.0  0.13186796734096928  0.9519071376248912  0.04803410853784308  1.0000
  H   H7        1.0  0.1663299436679675  0.8050177538160002  0.2708060349361046  1.0000
  H   H8        1.0  0.24333379327968419  0.6912167171079606  0.6211902765854871  1.0000
  H   H9        1.0  0.10419941344444816  0.3512841253771415  0.019237783179322905  1.0000
  H   H10       1.0  0.10121877388359901  0.19069255926295758  0.9218648345090648  1.0000
  C   C15       1.0  0.17090694492187986  0.5578022076833071  0.9841616290141277  1.0000
  C   C16       1.0  0.0820376242589227  0.5494627735079842  0.058130776612924207  1.0000
  C   C17       1.0  0.9941289293225472  0.552813650551462  0.9831774435555354  1.0000
  C   C18       1.0  0.9950966345588719  0.5691927397519931  0.8317995488046117  1.0000
  C   C19       1.0  0.0824979286752172  0.5753787374191377  0.7566304092686612  1.0000
  C   C20       1.0  0.17108117893183672  0.5668916606153007  0.830598934080957  1.0000
  N   N4        1.0  0.9049957709739738  0.5476940182587686  0.0632036976156747  1.0000
  C   C21       1.0  0.8174742772427431  0.4812107323875036  0.016545898287426693  1.0000
  O   O1        1.0  0.8164315715712762  0.40487397816792314  0.90933553929988  1.0000
  H   H11       1.0  0.3993114189500184  0.6581172991907236  0.08028449569154607  1.0000
  H   H12       1.0  0.9284295852997543  0.5787515131611394  0.7711691067597493  1.0000
  H   H13       1.0  0.3256346998649091  0.6283593113067207  0.5453755331918165  1.0000
  H   H14       1.0  0.9049183095499079  0.5860476377209645  0.16655213452537732  1.0000
  H   H15       1.0  0.7515142491263601  0.49326324247915077  0.07694630295381977  1.0000
  Zn  Zn1       1.0  0.0651150546400574  0.5622768634005373  0.40738527412833486  1.0000
  Zn  Zn2       1.0  0.2768638160013428  0.5624163172733792  0.40737460520163915  1.0000
  C   C22       1.0  0.17100584798694785  0.5594271182109445  0.6706147137676803  1.0000
  C   C23       1.0  0.17097534771929057  0.5652678855356228  0.14414530355100674  1.0000
  C   C24       1.0  0.1728328818497384  0.8257368834927405  0.4011524506390062  1.0000
  C   C25       1.0  0.16914822948061503  0.2989563879880004  0.4136076467086687  1.0000
  O   O2        1.0  0.2513558116512593  0.567820064246181  0.19783324897145027  1.0000
  O   O3        1.0  0.25133778668930384  0.5569796891206686  0.6169182580107542  1.0000
  O   O4        1.0  0.25281205668975204  0.7720282079113152  0.3993255713390014  1.0000
  O   O5        1.0  0.24988146944532177  0.3527715545662848  0.41542582756772756  1.0000
  O   O6        1.0  0.09209732893662802  0.771921626061532  0.39933405175830383  1.0000
  O   O7        1.0  0.09062307105261413  0.5568748394906119  0.6169266583971262  1.0000
  O   O8        1.0  0.09064109537013487  0.5677151457428637  0.19783991670846435  1.0000
  O   O9        1.0  0.08916675311023603  0.3526666269061167  0.41543260337627474  1.0000
