data_image0
_chemical_formula_structural       Co4H32C48N8O16
_chemical_formula_sum              "Co4 H32 C48 N8 O16"
_cell_length_a       9.8064
_cell_length_b       10.6685
_cell_length_c       13.9712
_cell_angle_alpha    95.3024
_cell_angle_beta     110.546
_cell_angle_gamma    74.7329

_space_group_name_H-M_alt    "P 1"
_space_group_IT_number       1

loop_
  _space_group_symop_operation_xyz
  'x, y, z'

loop_
  _atom_site_type_symbol
  _atom_site_label
  _atom_site_symmetry_multiplicity
  _atom_site_fract_x
  _atom_site_fract_y
  _atom_site_fract_z
  _atom_site_occupancy
  Co  Co1       1.0  0.62243  0.88012  0.24882  1.0000
  Co  Co2       1.0  0.87488  0.3839499999999999  0.74792  1.0000
  Co  Co3       1.0  0.3736100000000001  0.3801199999999999  0.7511800000000001  1.0000
  Co  Co4       1.0  0.12696000000000005  0.8839499999999999  0.25208  1.0000
  H   H1        1.0  0.8330000000000004  0.7672999999999999  0.1258  1.0000
  H   H2        1.0  0.8428  0.6398  0.9834000000000002  1.0000
  H   H3        1.0  0.418  0.6146  0.9356  1.0000
  H   H4        1.0  0.42310000000000003  0.742  0.0808  1.0000
  H   H5        1.0  0.9047000000000001  0.49069999999999997  0.5622  1.0000
  H   H6        1.0  0.7615999999999999  0.6119  0.4152  1.0000
  H   H7        1.0  0.3907000000000001  0.6369  0.48940000000000017  1.0000
  H   H8        1.0  0.5453  0.511  0.6336  1.0000
  H   H9        1.0  0.5062  0.16689999999999997  0.3084  1.0000
  H   H10       1.0  0.5048000000000001  0.2963  0.45120000000000005  1.0000
  H   H11       1.0  0.7435  0.9827  0.6296  1.0000
  H   H12       1.0  0.7289  0.8581  0.4846000000000001  1.0000
  H   H13       1.0  0.9789  0.4064999999999999  0.9862000000000002  1.0000
  H   H14       1.0  0.11330000000000001  0.28219999999999995  0.1326  1.0000
  H   H15       1.0  0.2240000000000001  0.9801999999999998  0.9526  1.0000
  H   H16       1.0  0.06760000000000001  0.1074  0.8112  1.0000
  H   H17       1.0  0.7072  0.2673  0.8742  1.0000
  H   H18       1.0  0.8594  0.1398  0.016600000000000004  1.0000
  H   H19       1.0  0.4824  0.1146  0.0644  1.0000
  H   H20       1.0  0.3423000000000001  0.24199999999999994  0.9192000000000002  1.0000
  H   H21       1.0  0.3425000000000001  0.9907  0.4378  1.0000
  H   H22       1.0  0.3464  0.1119  0.5848  1.0000
  H   H23       1.0  0.9013000000000001  0.1369  0.5106  1.0000
  H   H24       1.0  0.9117  0.010999999999999998  0.36640000000000006  1.0000
  H   H25       1.0  0.19780000000000006  0.6669  0.6916000000000001  1.0000
  H   H26       1.0  0.053600000000000016  0.7963  0.5488  1.0000
  H   H27       1.0  0.11389999999999999  0.4827  0.3704  1.0000
  H   H28       1.0  0.24430000000000007  0.3580999999999999  0.5154  1.0000
  H   H29       1.0  0.9927000000000001  0.9065  0.0138  1.0000
  H   H30       1.0  0.9807000000000001  0.7822  0.8674  1.0000
  H   H31       1.0  0.2714  0.48019999999999996  0.047400000000000005  1.0000
  H   H32       1.0  0.2564000000000001  0.6074  0.1888  1.0000
  C   C1        1.0  0.74818  0.7353  0.08696  1.0000
  C   C2        1.0  0.7546100000000002  0.6602  0.001420000000000001  1.0000
  C   C3        1.0  0.6294500000000001  0.6152  0.9423  1.0000
  C   C4        1.0  0.5046100000000001  0.6451  0.97322  1.0000
  C   C5        1.0  0.5091900000000001  0.7206  0.06038000000000001  1.0000
  C   C6        1.0  0.6318000000000004  0.5335  0.8478000000000002  1.0000
  C   C7        1.0  0.7993100000000001  0.521  0.54722  1.0000
  C   C8        1.0  0.71486  0.594  0.4597200000000002  1.0000
  C   C9        1.0  0.56235  0.6404  0.4379  1.0000
  C   C10       1.0  0.4961400000000001  0.6083  0.50328  1.0000
  C   C11       1.0  0.58939  0.5334  0.58898  1.0000
  C   C12       1.0  0.46520000000000006  0.7261  0.346  1.0000
  C   C13       1.0  0.5532500000000001  0.1285  0.3743  1.0000
  C   C14       1.0  0.5527100000000001  0.2062  0.4592200000000001  1.0000
  C   C15       1.0  0.62239  0.1519  0.55618  1.0000
  C   C16       1.0  0.69129  0.021999999999999995  0.56418  1.0000
  C   C17       1.0  0.6848100000000003  0.9489  0.47742  1.0000
  C   C18       1.0  0.6196  0.2333  0.6506  1.0000
  C   C19       1.0  0.026279999999999838  0.31789999999999996  0.97916  1.0000
  C   C20       1.0  0.10899  0.24479999999999996  0.06758  1.0000
  C   C21       1.0  0.1856  0.1162  0.06  1.0000
  C   C22       1.0  0.17157  0.06649999999999999  0.96154  1.0000
  C   C23       1.0  0.08067999999999986  0.1444  0.8773600000000001  1.0000
  C   C24       1.0  0.2807  0.0323  0.1522  1.0000
  C   C25       1.0  0.6612200000000001  0.2353  0.9130400000000001  1.0000
  C   C26       1.0  0.7531900000000002  0.1602  0.9985800000000002  1.0000
  C   C27       1.0  0.6871500000000001  0.11519999999999998  0.05770000000000002  1.0000
  C   C28       1.0  0.53139  0.1451  0.02678  1.0000
  C   C29       1.0  0.4488100000000001  0.2206  0.9396200000000001  1.0000
  C   C30       1.0  0.784  0.03350000000000001  0.1522  1.0000
  C   C31       1.0  0.25209000000000004  0.020999999999999994  0.4527800000000001  1.0000
  C   C32       1.0  0.25514  0.09399999999999999  0.54028  1.0000
  C   C33       1.0  0.1244500000000001  0.1404  0.5621  1.0000
  C   C34       1.0  0.99286  0.10829999999999998  0.49672  1.0000
  C   C35       1.0  0.0004100000000000156  0.0334  0.41102  1.0000
  C   C36       1.0  0.11920000000000003  0.2261  0.654  1.0000
  C   C37       1.0  0.17895000000000005  0.6284999999999998  0.6257000000000003  1.0000
  C   C38       1.0  0.09349000000000006  0.7061999999999999  0.54078  1.0000
  C   C39       1.0  0.06620999999999999  0.6519  0.44382  1.0000
  C   C40       1.0  0.12711000000000006  0.522  0.43582000000000004  1.0000
  C   C41       1.0  0.20739  0.44889999999999997  0.52258  1.0000
  C   C42       1.0  0.969  0.7332999999999998  0.3494  1.0000
  C   C43       1.0  0.04711999999999998  0.8179  0.020840000000000004  1.0000
  C   C44       1.0  0.041410000000000224  0.7448  0.9324200000000001  1.0000
  C   C45       1.0  0.1256  0.6162  0.94  1.0000
  C   C46       1.0  0.21003000000000005  0.5665  0.03846000000000001  1.0000
  C   C47       1.0  0.20332000000000003  0.6444  0.12264  1.0000
  C   C48       1.0  0.12850000000000025  0.5323  0.8478000000000002  1.0000
  N   N1        1.0  0.6294400000000002  0.7647  0.11708000000000003  1.0000
  N   N2        1.0  0.7383700000000002  0.4913  0.61174  1.0000
  N   N3        1.0  0.6189100000000002  0.9993  0.3822200000000001  1.0000
  N   N4        1.0  0.009390000000000119  0.2705  0.8843800000000004  1.0000
  N   N5        1.0  0.51236  0.26469999999999994  0.88292  1.0000
  N   N6        1.0  0.12663000000000008  0.9912999999999997  0.38826  1.0000
  N   N7        1.0  0.23668999999999993  0.4992999999999999  0.61778  1.0000
  N   N8        1.0  0.12500999999999998  0.7705  0.11562  1.0000
  O   O1        1.0  0.75424  0.5032  0.83188  1.0000
  O   O2        1.0  0.5091  0.5088  0.7932  1.0000
  O   O3        1.0  0.52483  0.7493999999999998  0.28586  1.0000
  O   O4        1.0  0.32857000000000003  0.7671999999999999  0.33674  1.0000
  O   O5        1.0  0.7393100000000001  0.2512  0.71422  1.0000
  O   O6        1.0  0.49046  0.273  0.65812  1.0000
  O   O7        1.0  0.21939000000000003  0.022299999999999993  0.21578  1.0000
  O   O8        1.0  0.41244  0.9853999999999999  0.15648000000000006  1.0000
  O   O9        1.0  0.92236  0.0031999999999999963  0.16812000000000005  1.0000
  O   O10       1.0  0.7159  0.008800000000000004  0.2068  1.0000
  O   O11       1.0  0.23897000000000002  0.24939999999999998  0.71414  1.0000
  O   O12       1.0  0.9918300000000001  0.2672  0.66326  1.0000
  O   O13       1.0  0.025090000000000025  0.7511999999999999  0.28578  1.0000
  O   O14       1.0  0.8323400000000001  0.773  0.3418800000000001  1.0000
  O   O15       1.0  0.0036100000000000416  0.5223  0.7842200000000001  1.0000
  O   O16       1.0  0.2559600000000004  0.4854  0.84352  1.0000
