data_image0
_chemical_formula_structural       NC5OC5NC4H8C6NCH9C7NH4Zn2C4O8
_chemical_formula_sum              "N4 C32 O9 H21 Zn2"
_cell_length_a       19.189071930511275
_cell_length_b       9.273386996610926
_cell_length_c       9.275157849593905
_cell_angle_alpha    86.01375275156522
_cell_angle_beta     89.71899716240229
_cell_angle_gamma    89.38971707573329

_space_group_name_H-M_alt    "P 1"
_space_group_IT_number       1

loop_
  _space_group_symop_operation_xyz
  'x, y, z'

loop_
  _atom_site_type_symbol
  _atom_site_label
  _atom_site_symmetry_multiplicity
  _atom_site_fract_x
  _atom_site_fract_y
  _atom_site_fract_z
  _atom_site_occupancy
  N   N1        1.0  0.6517669364371548  0.5633579551342038  0.4072955216604033  1.0000
  C   C1        1.0  0.5970956752032787  0.6143931807207681  0.38691382844900457  1.0000
  C   C2        1.0  0.5290916850508502  0.6778724936892584  0.36156206631071375  1.0000
  C   C3        1.0  0.5191016153264634  0.7844570571043736  0.24884529692036164  1.0000
  C   C4        1.0  0.4530423664189227  0.8462015746135509  0.2243585552422203  1.0000
  C   C5        1.0  0.3963183559154536  0.8012320218945133  0.3110848517592062  1.0000
  O   O1        1.0  0.3310732936321363  0.8669865110967754  0.2840781838166274  1.0000
  C   C6        1.0  0.2663797856160032  0.8010154217756031  0.3104591099866367  1.0000
  C   C7        1.0  0.20910533137660184  0.8875297261151454  0.3438959898458489  1.0000
  C   C8        1.0  0.1435617649810193  0.8261114246265131  0.3693261720700283  1.0000
  C   C9        1.0  0.13464062046925201  0.6773646301865119  0.36009351935218725  1.0000
  C   C10       1.0  0.0671671205940934  0.6141133606428533  0.38610459627102645  1.0000
  N   N2        1.0  0.012922407424703304  0.5632615422164104  0.40701683278384926  1.0000
  C   C11       1.0  0.1914483259400629  0.5904873704947828  0.3245295205333709  1.0000
  C   C12       1.0  0.25698270207835644  0.6519499518535583  0.2991476875514769  1.0000
  C   C13       1.0  0.406781496375448  0.6956674666743305  0.42559585476409745  1.0000
  C   C14       1.0  0.47283170306460237  0.6339190459592763  0.4501507137346149  1.0000
  H   H1        1.0  0.5623205269511979  0.8199119261953229  0.18010673900983173  1.0000
  H   H2        1.0  0.4457793717089588  0.9287195358972045  0.13714590309476837  1.0000
  H   H3        1.0  0.2155408587717611  0.002657591913461495  0.3510043348219549  1.0000
  H   H4        1.0  0.099907832826969  0.8945402405811613  0.3959616334388061  1.0000
  H   H5        1.0  0.18500932206646584  0.47551279959873777  0.3156733182166358  1.0000
  H   H6        1.0  0.2999348186209335  0.5837164733720006  0.2687237108307172  1.0000
  H   H7        1.0  0.3642531952884635  0.6626575619774655  0.4970527327952348  1.0000
  H   H8        1.0  0.48009263900101273  0.5525767600754282  0.5385726454563251  1.0000
  C   C15       1.0  0.8344894095561372  0.13966203102976202  0.40786267358938927  1.0000
  C   C16       1.0  0.8470167083216346  0.22187870786860597  0.27755144054520753  1.0000
  C   C17       1.0  0.8529825139054134  0.15611856945891  0.14723721634133313  1.0000
  C   C18       1.0  0.8465143058902571  0.005787449101880556  0.14390243891398224  1.0000
  C   C19       1.0  0.8352161039761484  0.9226031682901481  0.27376008501592564  1.0000
  C   C20       1.0  0.8302066378035108  0.9869465033309831  0.40646216801347324  1.0000
  N   N3        1.0  0.8518970093870487  0.9349651173547058  0.010898293684513893  1.0000
  C   C21       1.0  0.8638203098176953  0.011503325993709847  0.8702588121652584  1.0000
  H   H9        1.0  0.8481983146198666  0.4040829245470061  0.6444485518292824  1.0000
  H   H10       1.0  0.8505750842226784  0.33850661496385714  0.2757806604083486  1.0000
  H   H11       1.0  0.8619894985054528  0.22377503076935287  0.049341269103250436  1.0000
  H   H12       1.0  0.8319318704389655  0.8061810685916393  0.2714892025728666  1.0000
  H   H13       1.0  0.8550812126858849  0.8589601328083664  0.757442886801902  1.0000
  H   H14       1.0  0.8469634976448722  0.8226281070145527  0.01389046421891704  1.0000
  H   H15       1.0  0.8206747735306269  0.08984712788669082  0.8452532390126981  1.0000
  H   H16       1.0  0.9142599743991634  0.06904385516641275  0.8704524341107384  1.0000
  H   H17       1.0  0.8657676439146805  0.9332441212211413  0.784942318904053  1.0000
  C   C22       1.0  0.8332933381050361  0.5592261593990552  0.9839706633684765  1.0000
  C   C23       1.0  0.893120895775868  0.6062406420155905  0.05354260303227831  1.0000
  C   C24       1.0  0.9493163157584402  0.6646002110399123  0.9735243525375357  1.0000
  C   C25       1.0  0.946338040191196  0.6768731578878389  0.822847370401862  1.0000
  C   C26       1.0  0.8879491346385712  0.6286900723932537  0.751934714256464  1.0000
  C   C27       1.0  0.8314027431921018  0.5673823551007497  0.8303541799804148  1.0000
  C   C28       1.0  0.009816739788618856  0.7136236041941058  0.046400036284665054  1.0000
  N   N4        1.0  0.05844359278258371  0.753025193312351  0.10497980440809895  1.0000
  H   H18       1.0  0.663980830602019  0.5106293157229904  0.092019524852508  1.0000
  H   H19       1.0  0.9895020304846627  0.7224950600976576  0.7599156554377569  1.0000
  H   H20       1.0  0.8877566303172016  0.636274821432534  0.6348578561899094  1.0000
  H   H21       1.0  0.7181664965399558  0.5286053397441846  0.5530993612948554  1.0000
  Zn  Zn1       1.0  0.7559886136342538  0.5633263639633055  0.4072234203096237  1.0000
  Zn  Zn2       1.0  0.9087007807176573  0.5632814893017268  0.4071007364075199  1.0000
  C   C29       1.0  0.8317875851121815  0.56009345309339  0.6703790483473762  1.0000
  C   C30       1.0  0.8329034673349559  0.5665162213229694  0.14394524546626247  1.0000
  C   C31       1.0  0.8310254253752668  0.8267363774210337  0.4009841659408651  1.0000
  C   C32       1.0  0.8336655835514403  0.29987156447201224  0.4133402076113778  1.0000
  O   O2        1.0  0.8907261264984457  0.5689395091497518  0.1975876291061916  1.0000
  O   O3        1.0  0.8898699336738323  0.5576350141037738  0.6166431374195795  1.0000
  O   O4        1.0  0.8892536954597144  0.7729525623280529  0.3991048620109193  1.0000
  O   O5        1.0  0.8913423127914452  0.3536219702196663  0.41512579648639436  1.0000
  O   O6        1.0  0.7733470294473068  0.772985883062177  0.39919836026503275  1.0000
  O   O7        1.0  0.7739632590686966  0.5576700673780219  0.6167365559693725  1.0000
  O   O8        1.0  0.7748194560640497  0.5689744954542819  0.1976793151073286  1.0000
  O   O9        1.0  0.7754356421650088  0.3536569472468136  0.41521759055027263  1.0000
