data_image0
_chemical_formula_structural       NC5OC5NC4H8C6BrH5C6OCH6Zn2C4O8
_chemical_formula_sum              "N2 C31 O10 H19 Br1 Zn2"
_cell_length_a       19.189071930511275
_cell_length_b       9.276564384272257
_cell_length_c       9.273891588657152
_cell_angle_alpha    86.03089208269444
_cell_angle_beta     89.6582401659116
_cell_angle_gamma    90.57707898574843

_space_group_name_H-M_alt    "P 1"
_space_group_IT_number       1

loop_
  _space_group_symop_operation_xyz
  'x, y, z'

loop_
  _atom_site_type_symbol
  _atom_site_label
  _atom_site_symmetry_multiplicity
  _atom_site_fract_x
  _atom_site_fract_y
  _atom_site_fract_z
  _atom_site_occupancy
  N   N1        1.0  0.6682406856596474  0.5636935318224052  0.4082436519267849  1.0000
  C   C1        1.0  0.6140909034849306  0.6147205209773554  0.3878987326942327  1.0000
  C   C2        1.0  0.546735546522566  0.6781895894003785  0.3625927111939222  1.0000
  C   C3        1.0  0.537870732765812  0.7847995395085828  0.24993982119652272  1.0000
  C   C4        1.0  0.47244230207486765  0.8465339879021712  0.22549760184959733  1.0000
  C   C5        1.0  0.41522333257209143  0.8015299445820528  0.3122041614838622  1.0000
  O   O1        1.0  0.3506505360923115  0.8672742751171083  0.2852447361223409  1.0000
  C   C6        1.0  0.2852829163104695  0.8013138118195489  0.3115781324472702  1.0000
  C   C7        1.0  0.2288574098789102  0.887772878880899  0.34508987397740976  1.0000
  C   C8        1.0  0.16268580489486442  0.8263639420108707  0.37047596670060856  1.0000
  C   C9        1.0  0.15228015440795487  0.6776828225405398  0.3611234904341001  1.0000
  C   C10       1.0  0.0841599645647142  0.6144413051826771  0.38708912925026717  1.0000
  N   N2        1.0  0.0293953350556187  0.5635973270305894  0.4079648351541387  1.0000
  C   C11       1.0  0.2082363749587111  0.5908622380659616  0.32548394991325624  1.0000
  C   C12       1.0  0.27439920808877005  0.6523154075715794  0.3001462505015149  1.0000
  C   C13       1.0  0.42457050430015797  0.695938501478754  0.4266524255912012  1.0000
  C   C14       1.0  0.489989818569365  0.634200110101895  0.45116277167761915  1.0000
  H   H1        1.0  0.5814800662726487  0.8202818213433534  0.18121675757556188  1.0000
  H   H2        1.0  0.46605045530104994  0.9290715715098364  0.1383344149824508  1.0000
  H   H3        1.0  0.2364419427960439  0.0028499360268132686  0.35229095372108454  1.0000
  H   H4        1.0  0.1197032540527814  0.8947489534337263  0.39717067489931335  1.0000
  H   H5        1.0  0.2006508016334247  0.4759394750310786  0.3165348126204064  1.0000
  H   H6        1.0  0.31668385257141046  0.5841279547252569  0.26966248425406114  1.0000
  H   H7        1.0  0.381674858863306  0.6628985463858019  0.4980962516262086  1.0000
  H   H8        1.0  0.496390753986322  0.5528369929620329  0.5395363944885316  1.0000
  C   C15       1.0  0.846720783412297  0.14016836867229787  0.40847444247703946  1.0000
  C   C16       1.0  0.8381396758470715  0.2224812427301872  0.27674208160091496  1.0000
  C   C17       1.0  0.8360408311079667  0.15631533621144533  0.14623522387254306  1.0000
  C   C18       1.0  0.8425141834803359  0.006895194946104912  0.144982647116223  1.0000
  C   C19       1.0  0.8498728969011985  0.9228713421686239  0.27472383584829885  1.0000
  C   C20       1.0  0.8509218424862446  0.987111513075018  0.40774644854781994  1.0000
  Br  Br1       1.0  0.8401567076570712  0.9169221804834925  0.9659040326644233  1.0000
  H   H9        1.0  0.8256640165504666  0.40484082069370003  0.6428264954127356  1.0000
  H   H10       1.0  0.83470717422606  0.3391162836197064  0.274277112669842  1.0000
  H   H11       1.0  0.8300448467417183  0.2216312310079822  0.04583860826979347  1.0000
  H   H12       1.0  0.8531055037605704  0.8066024586054154  0.2716137277102899  1.0000
  H   H13       1.0  0.8887694427881089  0.6911943995792637  0.6322095487905866  1.0000
  C   C21       1.0  0.8499440032007707  0.5598204030484458  0.9848375389736795  1.0000
  C   C22       1.0  0.9073158695475338  0.6207153115337154  0.05331482732661974  1.0000
  C   C23       1.0  0.9607882658030059  0.6923795829788777  0.9734024661451031  1.0000
  C   C24       1.0  0.9570805279944162  0.7035102450658829  0.821955192540246  1.0000
  C   C25       1.0  0.9011684047436512  0.6417417687541405  0.7521353264768824  1.0000
  C   C26       1.0  0.8476986036147077  0.5674594542179441  0.831383377207199  1.0000
  O   O2        1.0  0.01624817890424768  0.7514994693853236  0.048515657594225825  1.0000
  C   C27       1.0  0.0740108569492397  0.8273779935402985  0.9813297517935813  1.0000
  H   H14       1.0  0.6837464620939033  0.4712929269821187  0.09605887612947073  1.0000
  H   H15       1.0  0.9974975511504148  0.7585665856997246  0.7569547342581764  1.0000
  H   H16       1.0  0.7368357353551234  0.5021406496172194  0.5560822353559285  1.0000
  H   H17       1.0  0.055788577129935575  0.9249696938204066  0.9168647398706352  1.0000
  H   H18       1.0  0.10271279813568968  0.7558000860562277  0.9109561656151518  1.0000
  H   H19       1.0  0.10985443430645227  0.8618379170730466  0.0661161299307127  1.0000
  Zn  Zn1       1.0  0.7724620837414481  0.5636619971816434  0.4081715122082208  1.0000
  Zn  Zn2       1.0  0.9251738647964657  0.5636172151230143  0.4080487700726769  1.0000
  C   C28       1.0  0.8480929930959513  0.560270631440617  0.6713730443727115  1.0000
  C   C29       1.0  0.8495446317000322  0.5670104011966839  0.1448473764761482  1.0000
  C   C30       1.0  0.8501393982042316  0.8269694230168327  0.4021402880434344  1.0000
  C   C31       1.0  0.8474981656840211  0.3003098777484081  0.41408021118288363  1.0000
  O   O3        1.0  0.9073638928157851  0.569400144383984  0.1985015650565014  1.0000
  O   O4        1.0  0.9061784359951701  0.5578458080658647  0.6176252833631326  1.0000
  O   O5        1.0  0.9078301487865746  0.7732084688838841  0.40021792709997595  1.0000
  O   O6        1.0  0.9057121282520207  0.35403749292198783  0.41590881327868345  1.0000
  O   O7        1.0  0.7919237681728855  0.7732417193994532  0.4003114690365175  1.0000
  O   O8        1.0  0.7902720641762034  0.5578807904702776  0.6177187469565188  1.0000
  O   O9        1.0  0.7914575253904254  0.569435060897545  0.19859329572892737  1.0000
  O   O10       1.0  0.7898057604860126  0.3540724000963089  0.41600065202638725  1.0000
