data_image0
_chemical_formula_structural       NC9NC3OCH8C12ClH9C16H10Zn2C4O8
_chemical_formula_sum              "N2 C45 O9 H27 Cl1 Zn2"
_cell_length_a       17.728193572023454
_cell_length_b       10.299768534541528
_cell_length_c       10.299151387937775
_cell_angle_alpha    85.58714147101236
_cell_angle_beta     90.6938546660218
_cell_angle_gamma    88.4716702258364

_space_group_name_H-M_alt    "P 1"
_space_group_IT_number       1

loop_
  _space_group_symop_operation_xyz
  'x, y, z'

loop_
  _atom_site_type_symbol
  _atom_site_label
  _atom_site_symmetry_multiplicity
  _atom_site_fract_x
  _atom_site_fract_y
  _atom_site_fract_z
  _atom_site_occupancy
  N   N1        1.0  0.7110218229785514  0.386279071000895  0.5852363803496583  1.0000
  C   C1        1.0  0.6503981444813108  0.3488574973653178  0.5982400070364686  1.0000
  C   C2        1.0  0.574930019516544  0.3023374955677094  0.6144241892481679  1.0000
  C   C3        1.0  0.5629968863153082  0.174306292330169  0.6238387021899467  1.0000
  C   C4        1.0  0.48627168328489534  0.12486232679247736  0.6387872292977894  1.0000
  C   C5        1.0  0.42814327214082404  0.20753789198234585  0.6562611071456825  1.0000
  C   C6        1.0  0.35008017341560216  0.16250029074768113  0.677993464595575  1.0000
  C   C7        1.0  0.2887653755222413  0.2479518408658319  0.6425354481262362  1.0000
  C   C8        1.0  0.21447790962279312  0.20865864061394523  0.6626818561911654  1.0000
  C   C9        1.0  0.15218526163631796  0.29664605295616786  0.6251495887086824  1.0000
  N   N2        1.0  0.10211537947080092  0.36737940739770036  0.5949771934937058  1.0000
  C   C10       1.0  0.2008736273386726  0.0837944933055468  0.7193403711209663  1.0000
  C   C11       1.0  0.2612896814126123  0.9986610922875994  0.7562069776608529  1.0000
  C   C12       1.0  0.33547336982281095  0.03746473217486779  0.7361901320110598  1.0000
  O   O1        1.0  0.4415350793523911  0.3413201215354502  0.654971960661362  1.0000
  C   C13       1.0  0.5092801510369089  0.3986784023792225  0.6063647523211109  1.0000
  H   H1        1.0  0.609905913894594  0.10484613904668504  0.6217342172390735  1.0000
  H   H2        1.0  0.4785921750981967  0.021214453669085254  0.63679973354691  1.0000
  H   H3        1.0  0.2986869119642078  0.3447561394839453  0.5981130943552266  1.0000
  H   H4        1.0  0.1436489995756157  0.052513781985173986  0.7354791679820731  1.0000
  H   H5        1.0  0.2506315675443593  0.9025158434921463  0.8010905027210206  1.0000
  H   H6        1.0  0.3809830383266288  0.9702495055505964  0.7686073941150795  1.0000
  H   H7        1.0  0.49983180793510273  0.43456282567320703  0.5028393885329048  1.0000
  H   H8        1.0  0.5221780169361715  0.4830867453267003  0.6629515388434617  1.0000
  C   C14       1.0  0.906501052733233  0.9954671151071927  0.5901029847018515  1.0000
  C   C15       1.0  0.911486951949683  0.004732683493337665  0.45375782230100015  1.0000
  C   C16       1.0  0.9140858944868578  0.892284750793533  0.38467983996242294  1.0000
  C   C17       1.0  0.9116310799840727  0.7694380077519701  0.45377690204388443  1.0000
  C   C18       1.0  0.9066434054943932  0.75818099609172  0.5901219581788149  1.0000
  C   C19       1.0  0.9041068788672076  0.87175095591907  0.6575214801165614  1.0000
  C   C20       1.0  0.9193615635922758  0.9031405690506382  0.24043804942135116  1.0000
  C   C21       1.0  0.876438599380445  0.9987226113429174  0.16490495291358864  1.0000
  C   C22       1.0  0.8814714463064393  0.008741376188274865  0.029150139923084014  1.0000
  C   C23       1.0  0.9293545766653288  0.923703012086825  0.9672347502046241  1.0000
  C   C24       1.0  0.97226534790842  0.8284331480462865  0.04125631788099726  1.0000
  C   C25       1.0  0.9673665120817865  0.8180156622053301  0.17702911194093973  1.0000
  Cl  Cl1       1.0  0.9355849474163696  0.9365231469519021  0.7969044078522778  1.0000
  H   H9        1.0  0.9045624597414603  0.3193920974803257  0.6420529858316648  1.0000
  H   H10       1.0  0.9144024622673994  0.09958128979327552  0.4010976867307734  1.0000
  H   H11       1.0  0.9125772367334167  0.6825355352329163  0.40085416063306134  1.0000
  H   H12       1.0  0.9002597228702205  0.8638348446463009  0.762705477520522  1.0000
  H   H13       1.0  0.9047729142123337  0.4264363519775611  0.6420814564966836  1.0000
  H   H14       1.0  0.8382776953251607  0.06456293490541154  0.2106981042217844  1.0000
  H   H15       1.0  0.84797234771719  0.08244980817109805  0.9722038599859464  1.0000
  H   H16       1.0  0.009584848022648137  0.7625861376462768  0.9937527269170188  1.0000
  H   H17       1.0  0.0018233837638776981  0.7445536066971765  0.23250493702087602  1.0000
  C   C26       1.0  0.9066159293305003  0.37665321863431384  0.20874260098408381  1.0000
  C   C27       1.0  0.8338142320704284  0.4341238562719299  0.20202198505058247  1.0000
  C   C28       1.0  0.7968572900363539  0.4634387700088016  0.08145742204708029  1.0000
  C   C29       1.0  0.8336830251937477  0.43450778714500865  0.9667063905740916  1.0000
  C   C30       1.0  0.9065285104891848  0.3769948895103985  0.9714824071467238  1.0000
  C   C31       1.0  0.9425472492064751  0.34842357695738935  0.09291596267406654  1.0000
  C   C32       1.0  0.719841911349798  0.5242360554070526  0.07539323189801062  1.0000
  C   C33       1.0  0.700692720556937  0.624972727075374  0.9796135359572259  1.0000
  C   C34       1.0  0.628193401430009  0.682156521637326  0.9740338813030007  1.0000
  C   C35       1.0  0.5738922290912853  0.6394580471692062  0.06390851004961173  1.0000
  C   C36       1.0  0.5923575767502322  0.5393127553605255  0.15950909225892862  1.0000
  C   C37       1.0  0.6648352293575841  0.48204241591245967  0.1653377704481114  1.0000
  C   C38       1.0  0.4992645870409844  0.6983744009410404  0.0580365135211578  1.0000
  C   C39       1.0  0.4367649898576349  0.74771596025368  0.053118714168895347  1.0000
  C   C40       1.0  0.3635786114714705  0.8054944799660897  0.04736002081170642  1.0000
  C   C41       1.0  0.3010891143901163  0.8548283033115064  0.042443122708188286  1.0000
  H   H18       1.0  0.9346025220179653  0.35448576148534744  0.5388076805451751  1.0000
  H   H19       1.0  0.8060905406063446  0.4578577518517637  0.2906357909558459  1.0000
  H   H20       1.0  0.8050519208644847  0.45527019288056314  0.8736207860086848  1.0000
  H   H21       1.0  0.9987001554353573  0.3040914875298901  0.09738424937124424  1.0000
  H   H22       1.0  0.04383080852365075  0.26769314996400806  0.7732580259000641  1.0000
  H   H23       1.0  0.7420704615952517  0.6606747531917689  0.9100984689287466  1.0000
  H   H24       1.0  0.6145603430404328  0.7598637462045952  0.8998434575918347  1.0000
  H   H25       1.0  0.5506874254020545  0.505266039825355  0.22934831793619548  1.0000
  H   H26       1.0  0.6775763374257763  0.40361666626651543  0.2391129459800121  1.0000
  H   H27       1.0  0.24621817655149145  0.8981474110256038  0.03812568759102253  1.0000
  Zn  Zn1       1.0  0.8238829852523334  0.38082156940928047  0.5880548682576636  1.0000
  Zn  Zn2       1.0  0.9892542395947241  0.372826310228487  0.5921693430166832  1.0000
  C   C42       1.0  0.9065423929666728  0.3717568418462602  0.8273080642560013  1.0000
  C   C43       1.0  0.9065966380205418  0.38189258913030655  0.3529163194559193  1.0000
  C   C44       1.0  0.9066132002279846  0.6140097420466855  0.5849431269251892  1.0000
  C   C45       1.0  0.9065257740304521  0.13963813141502457  0.59528132458265  1.0000
  O   O2        1.0  0.9693476918067178  0.3806111449015314  0.4028637580052552  1.0000
  O   O3        1.0  0.9693042946560155  0.3669690894824087  0.7804830429748726  1.0000
  O   O4        1.0  0.969360626258742  0.5625914116072324  0.5847716202927546  1.0000
  O   O5        1.0  0.9692913037868767  0.18498883475137567  0.5985750819086955  1.0000
  O   O6        1.0  0.8438458646270889  0.5686590476161921  0.581649127954752  1.0000
  O   O7        1.0  0.8437895333200491  0.37303828573602543  0.7773604814300525  1.0000
  O   O8        1.0  0.8438329306914291  0.3866802951980512  0.3997396350558633  1.0000
  O   O9        1.0  0.8437765426556103  0.19105797580302797  0.5954510563270823  1.0000
