data_image0
_chemical_formula_structural       NC9NC3OH6C7F3H5C7ONH7Zn2C4O8
_chemical_formula_sum              "N3 C30 O10 H18 F3 Zn2"
_cell_length_a       15.78231758774541
_cell_length_b       9.272718291674593
_cell_length_c       10.297855452804892
_cell_angle_alpha    85.97219489806729
_cell_angle_beta     90.0760746706638
_cell_angle_gamma    89.20559360488726

_space_group_name_H-M_alt    "P 1"
_space_group_IT_number       1

loop_
  _space_group_symop_operation_xyz
  'x, y, z'

loop_
  _atom_site_type_symbol
  _atom_site_label
  _atom_site_symmetry_multiplicity
  _atom_site_fract_x
  _atom_site_fract_y
  _atom_site_fract_z
  _atom_site_occupancy
  N   N1        1.0  0.7911411977521039  0.5695743231817534  0.5802820150654872  1.0000
  C   C1        1.0  0.7430052056954024  0.47845697046512464  0.6037486997481503  1.0000
  C   C2        1.0  0.6832424668510536  0.365358187537991  0.6328769099624371  1.0000
  C   C3        1.0  0.7035225766342128  0.22328792037297115  0.6693872113621668  1.0000
  C   C4        1.0  0.6270912660179159  0.15443507948804913  0.6871560977411159  1.0000
  C   C5        1.0  0.5648535725502528  0.2595833215138057  0.660175584119564  1.0000
  C   C6        1.0  0.47184708340009224  0.2401429842102392  0.6652556521371297  1.0000
  C   C7        1.0  0.41758388245488276  0.35934175785168154  0.6345047954260983  1.0000
  C   C8        1.0  0.3294466777470625  0.34340114464948024  0.6386774914481668  1.0000
  C   C9        1.0  0.27447190573547176  0.4660680715352288  0.6070236746359727  1.0000
  N   N2        1.0  0.23028515269927952  0.5646764550481973  0.5815768020343327  1.0000
  C   C10       1.0  0.2948921577091108  0.20808434639170614  0.6736488447889515  1.0000
  C   C11       1.0  0.3482233546606985  0.08913201123103787  0.7043404828796396  1.0000
  C   C12       1.0  0.4361768004866106  0.10463471069572303  0.7002811453775215  1.0000
  O   O1        1.0  0.6007703505697162  0.384197692739942  0.6281026910667729  1.0000
  H   H1        1.0  0.7661912382980252  0.1753767486453295  0.6816489355785922  1.0000
  H   H2        1.0  0.6188512065621395  0.04122298834894433  0.7162654264334667  1.0000
  H   H3        1.0  0.443731664118387  0.46464222230434865  0.6072861591187915  1.0000
  H   H4        1.0  0.226834544479868  0.19458347618225869  0.6771807785014946  1.0000
  H   H5        1.0  0.32134212827679914  0.984551435243042  0.7313734621381065  1.0000
  H   H6        1.0  0.4756727552483248  0.010416081133933547  0.7245993355985523  1.0000
  C   C13       1.0  0.012562814482124368  0.14372302476965348  0.5780655751963366  1.0000
  C   C14       1.0  0.9609188246386885  0.2256409653329647  0.48814880436460184  1.0000
  C   C15       1.0  0.903278295792769  0.15877812653096246  0.40846308167900314  1.0000
  C   C16       1.0  0.8995276803402636  0.007528804394658412  0.4160458466189907  1.0000
  C   C17       1.0  0.9512352532927019  0.9246520073110881  0.5031521240404531  1.0000
  C   C18       1.0  0.008871653412164678  0.9905165777679448  0.5838044479773424  1.0000
  C   C19       1.0  0.8500937311926549  0.24831327714756574  0.31027835490042316  1.0000
  F   F1        1.0  0.8283164061087416  0.3799599770765667  0.3574202322358415  1.0000
  F   F2        1.0  0.7761291386580068  0.17774664976554932  0.2829229165589269  1.0000
  F   F3        1.0  0.8958142510745782  0.27262266732519014  0.19663523678790762  1.0000
  H   H7        1.0  0.11315046757438574  0.2212027505929426  0.8586810833707627  1.0000
  H   H8        1.0  0.9643016308133822  0.3425740410157749  0.4821133353049447  1.0000
  H   H9        1.0  0.8571788915949123  0.9529289229199017  0.3534598515464334  1.0000
  H   H10       1.0  0.9477766926564455  0.8079209209493106  0.5048895225083159  1.0000
  H   H11       1.0  0.19076304911961506  0.8725231191819096  0.7406744155044065  1.0000
  C   C20       1.0  0.010749856783663681  0.5672627617672361  0.19949404924312056  1.0000
  C   C21       1.0  0.9239239023282243  0.6029889937754827  0.1960849479296183  1.0000
  C   C22       1.0  0.8797043398548808  0.6198697155343211  0.07734908913679363  1.0000
  C   C23       1.0  0.9238222852647425  0.6026657991272693  0.9608495334700016  1.0000
  C   C24       1.0  0.010684616357322882  0.5669768038813743  0.9623759155059669  1.0000
  C   C25       1.0  0.05353003067553261  0.5491768414428246  0.0821560796470664  1.0000
  C   C26       1.0  0.7880609627251817  0.6579454194334811  0.07632653084985974  1.0000
  O   O2        1.0  0.7564366227096064  0.7198178141430986  0.1704605514137878  1.0000
  N   N3        1.0  0.7340132616520424  0.6244559493795891  0.9713116433871468  1.0000
  H   H12       1.0  0.17491530397862498  0.5002562197614373  0.4131728372910992  1.0000
  H   H13       1.0  0.89036325568241  0.6165079745236688  0.28623295871455556  1.0000
  H   H14       1.0  0.8912002919232663  0.6196542700091725  0.8684750219273188  1.0000
  H   H15       1.0  0.12044713504487786  0.5216386561194388  0.08403007971102272  1.0000
  H   H16       1.0  0.17516397839926567  0.5017911650099383  0.7578426609108151  1.0000
  H   H17       1.0  0.6706015543182371  0.6581878749814436  0.9702625282918613  1.0000
  H   H18       1.0  0.7544392731279422  0.5584536564593003  0.8992375825710807  1.0000
  Zn  Zn1       1.0  0.917868669620135  0.5681570501115987  0.5806631313966344  1.0000
  Zn  Zn2       1.0  0.10355770272577786  0.5660819564246244  0.581206224275999  1.0000
  C   C27       1.0  0.010720101741176661  0.5612870055879715  0.8181359880192709  1.0000
  C   C28       1.0  0.010708290382364094  0.5729537974641252  0.3437335134035622  1.0000
  C   C29       1.0  0.009565454364719892  0.8304565650468879  0.5775434830891115  1.0000
  C   C30       1.0  0.01186288194114237  0.3037825064126092  0.5843260756602555  1.0000
  O   O3        1.0  0.08116238807423426  0.5740699835890268  0.3923476535074156  1.0000
  O   O4        1.0  0.08119968839797641  0.5585947838044392  0.7699336615563828  1.0000
  O   O5        1.0  0.08026634598087051  0.7759526172907132  0.5756535189752052  1.0000
  O   O6        1.0  0.08209566709162014  0.35671216116150695  0.586627698580114  1.0000
  O   O7        1.0  0.9393306418877329  0.7775268460844151  0.5752416569003671  1.0000
  O   O8        1.0  0.9402639767559574  0.5601707449004418  0.7695217419628578  1.0000
  O   O9        1.0  0.9402266768411182  0.5756458950257448  0.39193417187796764  1.0000
  O   O10       1.0  0.9411599558916642  0.3582880622491706  0.5862143142669928  1.0000
