data_image0
_chemical_formula_structural       NC5NC3F3CH3C6NCOH7C6ClH5Zn2C4O8
_chemical_formula_sum              "N3 C26 F3 H15 O9 Cl1 Zn2"
_cell_length_a       13.85151926108384
_cell_length_b       9.273730183620392
_cell_length_c       10.302974078461048
_cell_angle_alpha    85.70652844495697
_cell_angle_beta     89.99987480856441
_cell_angle_gamma    90.5942638072907

_space_group_name_H-M_alt    "P 1"
_space_group_IT_number       1

loop_
  _space_group_symop_operation_xyz
  'x, y, z'

loop_
  _atom_site_type_symbol
  _atom_site_label
  _atom_site_symmetry_multiplicity
  _atom_site_fract_x
  _atom_site_fract_y
  _atom_site_fract_z
  _atom_site_occupancy
  N   N1        1.0  0.9200439905731953  0.5783027902135705  0.5716018201473079  1.0000
  C   C1        1.0  0.8476513340493903  0.5692227757693626  0.6278374929421291  1.0000
  C   C2        1.0  0.7575891717198672  0.5579259926101297  0.6978027149375452  1.0000
  C   C3        1.0  0.670127256415978  0.5671475102446444  0.629807433269918  1.0000
  C   C4        1.0  0.5825371821247386  0.557925979464373  0.6978026968428455  1.0000
  C   C5        1.0  0.4926320820421158  0.5692227919191866  0.6278375776952225  1.0000
  N   N2        1.0  0.42036580469667956  0.5783027523244135  0.5716019150294502  1.0000
  C   C6        1.0  0.582392830345887  0.5384849500851929  0.8339494870999827  1.0000
  C   C7        1.0  0.6698416681121194  0.5260735974241602  0.9030740565029478  1.0000
  C   C8        1.0  0.6697332996048951  0.5104962826849968  0.049852743603794214  1.0000
  F   F1        1.0  0.7501481204803756  0.4356808627131769  0.0961522424211889  1.0000
  F   F2        1.0  0.588279305607031  0.4356808321134004  0.09615233177598481  1.0000
  F   F3        1.0  0.6706763043117611  0.6463117362144342  0.09674357417260127  1.0000
  C   C9        1.0  0.7574631565253425  0.5384848548308894  0.8339495045471936  1.0000
  H   H1        1.0  0.670233046777468  0.5823596464778797  0.524398128631028  1.0000
  H   H2        1.0  0.5142335440111131  0.5333068804661918  0.8858582498662758  1.0000
  H   H3        1.0  0.8255502969686278  0.5333067995664273  0.885858212718915  1.0000
  C   C10       1.0  0.16726039841686463  0.15480216911254274  0.5706359281351712  1.0000
  C   C11       1.0  0.1814180132085832  0.23828944545047318  0.4522903072293165  1.0000
  C   C12       1.0  0.20299902513983248  0.17348200623915577  0.33741159259444986  1.0000
  C   C13       1.0  0.2134831843356848  0.023026642372876657  0.3417719102970054  1.0000
  C   C14       1.0  0.19824298457056688  0.9383695244039643  0.45778248951106576  1.0000
  C   C15       1.0  0.1731585712939281  0.001792347562153083  0.5725790041701075  1.0000
  N   N3        1.0  0.219317788578584  0.26325907730283493  0.21932645665412998  1.0000
  C   C16       1.0  0.19520284582269865  0.22230429054214684  0.09178715279609984  1.0000
  O   O1        1.0  0.14557519124272877  0.11040281704492094  0.07602147154792838  1.0000
  H   H4        1.0  0.18239345597761702  0.23143164177529862  0.8896733598798436  1.0000
  H   H5        1.0  0.1771228730631838  0.35511605150398795  0.4494269855329327  1.0000
  H   H6        1.0  0.23443289344443974  0.9705326343444189  0.2559750531449867  1.0000
  H   H7        1.0  0.2044552873747807  0.822078016686881  0.457070501485308  1.0000
  H   H8        1.0  0.17921059924402116  0.7029744119124661  0.7872515389126835  1.0000
  H   H9        1.0  0.2443847553067069  0.3690325104344776  0.2264574028029227  1.0000
  H   H10       1.0  0.21762525210900674  0.2909183114692424  0.007389538448294929  1.0000
  C   C17       1.0  0.17020948087368493  0.5782972566198332  0.1903649528720397  1.0000
  C   C18       1.0  0.15237334315149575  0.4285103162852229  0.19925500166975982  1.0000
  C   C19       1.0  0.14352358756499609  0.3541901162410639  0.08670921020202615  1.0000
  C   C20       1.0  0.1523733868964088  0.4285103977320225  0.9641471028855011  1.0000
  C   C21       1.0  0.170209477892777  0.5782971821770637  0.9528499717746841  1.0000
  C   C22       1.0  0.17904062107538596  0.6524605351346411  0.06660988599948037  1.0000
  Cl  Cl1       1.0  0.12124201743579581  0.1670706435657796  0.09931853587558702  1.0000
  H   H11       1.0  0.17692860276747838  0.6347194117238768  0.5143191640205618  1.0000
  H   H12       1.0  0.14527950780054044  0.368936552284141  0.2933160113929145  1.0000
  H   H13       1.0  0.14527957511921352  0.36893653170570206  0.8781150452718064  1.0000
  H   H14       1.0  0.1927963425239512  0.7679807193262587  0.05882528850498469  1.0000
  H   H15       1.0  0.17692841897495207  0.6347193989617648  0.6212915335098885  1.0000
  Zn  Zn1       1.0  0.06442603195065777  0.5782989292585392  0.5716093217483864  1.0000
  Zn  Zn2       1.0  0.2759836639496092  0.5782948502485519  0.5716049718109887  1.0000
  C   C23       1.0  0.17016730372164846  0.572551983754739  0.8087107698475513  1.0000
  C   C24       1.0  0.17024471505276573  0.5840436153537325  0.3345036552628735  1.0000
  C   C25       1.0  0.1720387014133562  0.8416931393596382  0.5670382326150463  1.0000
  C   C26       1.0  0.16837323310545863  0.31490072707335925  0.5761762577376974  1.0000
  O   O2        1.0  0.25054151495389165  0.5859643062117581  0.3828762552965958  1.0000
  O   O3        1.0  0.2504378438211863  0.5706271090652797  0.7603344920940629  1.0000
  O   O4        1.0  0.25194793884380795  0.7879619959915052  0.5651822118677796  1.0000
  O   O5        1.0  0.24903134781282366  0.368629429603488  0.5780284382056411  1.0000
  O   O6        1.0  0.09137827589321668  0.7879643499065654  0.5651858553483933  1.0000
  O   O7        1.0  0.08986819293196824  0.5706311956587756  0.7603380703270168  1.0000
  O   O8        1.0  0.08997186377895439  0.5859683425497204  0.382878272531169  1.0000
  O   O9        1.0  0.08846169656210681  0.3686334556264568  0.5780305527521117  1.0000
