data_image0
_chemical_formula_structural       NC9NC3OH6C8NH7C6OCH6Zn2C4O8
_chemical_formula_sum              "N3 C31 O10 H19 Zn2"
_cell_length_a       15.78231758774541
_cell_length_b       9.27426342843186
_cell_length_c       9.273891588657152
_cell_angle_alpha    86.03948257069723
_cell_angle_beta     89.76748324947235
_cell_angle_gamma    90.24871893605766

_space_group_name_H-M_alt    "P 1"
_space_group_IT_number       1

loop_
  _space_group_symop_operation_xyz
  'x, y, z'

loop_
  _atom_site_type_symbol
  _atom_site_label
  _atom_site_symmetry_multiplicity
  _atom_site_fract_x
  _atom_site_fract_y
  _atom_site_fract_z
  _atom_site_occupancy
  N   N1        1.0  0.812911499806038  0.5552067574864785  0.41172393890961356  1.0000
  C   C1        1.0  0.7637171877467225  0.46430862540921397  0.43851166425250204  1.0000
  C   C2        1.0  0.7026408153082446  0.35148195223680134  0.471762131604583  1.0000
  C   C3        1.0  0.7212710667903792  0.2097526703991279  0.5134419429201469  1.0000
  C   C4        1.0  0.6440399100332983  0.1410658620435361  0.5337243526418034  1.0000
  C   C5        1.0  0.5830231564430828  0.24596216652287856  0.5029223374915418  1.0000
  C   C6        1.0  0.48979061385728895  0.22656936589452226  0.5087190072908615  1.0000
  C   C7        1.0  0.4369120773460786  0.3454808151940276  0.47361789956686856  1.0000
  C   C8        1.0  0.3485894892459146  0.3295792556237549  0.47837897722685924  1.0000
  C   C9        1.0  0.2950396979827211  0.45195041229290417  0.4422474321561825  1.0000
  N   N2        1.0  0.2519984501149219  0.5503210212800904  0.4132009025278114  1.0000
  C   C10       1.0  0.3124628534104862  0.1945892841778016  0.518295660806613  1.0000
  C   C11       1.0  0.36441223347430274  0.0759237247757787  0.5533290337575363  1.0000
  C   C12       1.0  0.4525459743529918  0.09138843020648381  0.5486973389085061  1.0000
  O   O1        1.0  0.6203872471071374  0.3702769423489838  0.466309779460383  1.0000
  H   H1        1.0  0.783383514539529  0.1619559607103147  0.5274414343423621  1.0000
  H   H2        1.0  0.6344850684604713  0.02812565197808948  0.5669547980645708  1.0000
  H   H3        1.0  0.464283260339898  0.4505269011819169  0.44255040160890613  1.0000
  H   H4        1.0  0.2442482374905745  0.1811214682230966  0.5223256903941644  1.0000
  H   H5        1.0  0.3363159680879264  0.9715957926081594  0.5841846083092166  1.0000
  H   H6        1.0  0.49094740403089826  0.9973970333013478  0.5764553937147006  1.0000
  C   C13       1.0  0.02977692996173208  0.12921301281238295  0.4127597111022663  1.0000
  C   C14       1.0  0.01925180433678196  0.21150201129444768  0.2809947614812115  1.0000
  C   C15       1.0  0.017032824275626357  0.14543828885394117  0.15045019568574003  1.0000
  C   C16       1.0  0.02597280724105122  0.995538621373626  0.1484439048736923  1.0000
  C   C17       1.0  0.034226990741365454  0.9117623214414713  0.2793176578679489  1.0000
  C   C18       1.0  0.03514099922363309  0.9763037546990511  0.4121776313378407  1.0000
  C   C19       1.0  0.022316026841005646  0.9243233483391824  0.007796566217413533  1.0000
  C   C20       1.0  0.934512352469603  0.8860751279016483  0.9754665539503611  1.0000
  N   N3        1.0  0.8652107537545317  0.8558853633955937  0.9499586961510147  1.0000
  H   H7        1.0  0.10181798389206692  0.2096746947110446  0.7453141200090945  1.0000
  H   H8        1.0  0.01457582255674405  0.32815165336417484  0.27861830524760633  1.0000
  H   H9        1.0  0.009133386009759317  0.21155334179322405  0.0505344762969604  1.0000
  H   H10       1.0  0.03789143793126269  0.7952148634739242  0.27743136926518286  1.0000
  H   H11       1.0  0.08034021910987027  0.6803409940931314  0.6380186259212121  1.0000
  H   H12       1.0  0.06144223160099102  0.8248230076055003  0.013506186712267443  1.0000
  H   H13       1.0  0.04762698403063626  0.9980458609619638  0.9181825502542447  1.0000
  C   C21       1.0  0.0338227586243105  0.5489230042012814  0.9892006226739795  1.0000
  C   C22       1.0  0.10359313702573186  0.6090716768744429  0.057965848292811595  1.0000
  C   C23       1.0  0.16862585376853378  0.6800440103997081  0.9783240614862346  1.0000
  C   C24       1.0  0.16412140703249622  0.6912265143823478  0.8268604106213302  1.0000
  C   C25       1.0  0.09612549997082387  0.6301847055791256  0.7567595746264826  1.0000
  C   C26       1.0  0.031095145535144923  0.5565936663046442  0.8357366758999891  1.0000
  O   O2        1.0  0.2360711677941406  0.7384425908008818  0.05371563217647601  1.0000
  C   C27       1.0  0.3063212271977711  0.8135732918802041  0.9868217824948431  1.0000
  H   H14       1.0  0.8317352313765515  0.4625783466324192  0.09960086278121505  1.0000
  H   H15       1.0  0.21327654871864535  0.7457600682069385  0.7620645971896689  1.0000
  H   H16       1.0  0.8962897920452545  0.49272941760976435  0.5598868893853202  1.0000
  H   H17       1.0  0.28419637961631095  0.9114300693185929  0.9222826330629244  1.0000
  H   H18       1.0  0.34119498275139404  0.7415975715372731  0.9165771341361366  1.0000
  H   H19       1.0  0.34990979830521707  0.847566137826814  0.07178752111904663  1.0000
  Zn  Zn1       1.0  0.9396224540264518  0.5537930622463894  0.4121584780898769  1.0000
  Zn  Zn2       1.0  0.1252873548940367  0.5517230514431233  0.4127781541186666  1.0000
  C   C28       1.0  0.03157246195786634  0.5493978881759296  0.6757271958607327  1.0000
  C   C29       1.0  0.03333938548571844  0.5561200240530111  0.14920958333464962  1.0000
  C   C30       1.0  0.034141216996918855  0.8161335396895808  0.40654388299591676  1.0000
  C   C31       1.0  0.030770555871415074  0.289382641059448  0.41839297402434644  1.0000
  O   O3        1.0  0.10363598347756103  0.5577435589382731  0.20314522037972838  1.0000
  O   O4        1.0  0.10219122217791193  0.5462021711416503  0.6222614644122285  1.0000
  O   O5        1.0  0.1042645697100843  0.7615946072418791  0.404894030556557  1.0000
  O   O6        1.0  0.10156257300408739  0.34235113288290275  0.42051254594411414  1.0000
  O   O7        1.0  0.9633471725581174  0.7631649815145045  0.4044240860453817  1.0000
  O   O8        1.0  0.9612738362429112  0.5477742776020815  0.6217914418571251  1.0000
  O   O9        1.0  0.962718602864294  0.5593155994337746  0.20267346491526622  1.0000
  O   O10       1.0  0.9606451919738376  0.3439231640414402  0.42004089855189086  1.0000
