data_image0
_chemical_formula_structural       NC5NC3F3CH3C6NCH9C9H8Zn2C4O8
_chemical_formula_sum              "N3 C29 F3 H20 Zn2 O8"
_cell_length_a       13.85151926108384
_cell_length_b       9.273386996610926
_cell_length_c       9.275155815604963
_cell_angle_alpha    85.96204841331945
_cell_angle_beta     90.35750761735815
_cell_angle_gamma    89.3985898819531

_space_group_name_H-M_alt    "P 1"
_space_group_IT_number       1

loop_
  _space_group_symop_operation_xyz
  'x, y, z'

loop_
  _atom_site_type_symbol
  _atom_site_label
  _atom_site_symmetry_multiplicity
  _atom_site_fract_x
  _atom_site_fract_y
  _atom_site_fract_z
  _atom_site_occupancy
  N   N1        1.0  0.8914304194418123  0.5651545496377532  0.40767000061692915  1.0000
  C   C1        1.0  0.8194219476254655  0.5566094709441902  0.47013656104438956  1.0000
  C   C2        1.0  0.7298377652806558  0.5459782244038511  0.5478538984153801  1.0000
  C   C3        1.0  0.6419359128432905  0.5545523715460943  0.472332157560136  1.0000
  C   C4        1.0  0.5547857757867084  0.5459782110807339  0.5478538783833469  1.0000
  C   C5        1.0  0.46440269577978655  0.5566094879099435  0.47013665506265734  1.0000
  N   N2        1.0  0.39175223452926644  0.5651545126437969  0.4076701061068575  1.0000
  C   C6        1.0  0.5555359755583827  0.5278330917253584  0.6990749866532988  1.0000
  C   C7        1.0  0.6434745432082555  0.5160788715576019  0.7758637840877782  1.0000
  C   C8        1.0  0.6442552851315012  0.5019004204103759  0.9388713373579861  1.0000
  F   F1        1.0  0.7259285584662603  0.42750347152351537  0.9905839131597194  1.0000
  F   F2        1.0  0.5640597444296254  0.42750344176844507  0.9905840124829798  1.0000
  F   F3        1.0  0.643512514801777  0.6382086515621945  0.9903548181246326  1.0000
  C   C9        1.0  0.7306063031503189  0.5278329966068915  0.6990750064222817  1.0000
  H   H1        1.0  0.6413468699759277  0.5687612240214699  0.3552511483918861  1.0000
  H   H2        1.0  0.48768649643985257  0.5231498426400001  0.7567217498400638  1.0000
  H   H3        1.0  0.7990032503593716  0.523149761358553  0.7567217089421316  1.0000
  C   C10       1.0  0.1445675975322267  0.14150665917380745  0.40837824599572303  1.0000
  C   C11       1.0  0.16098213844568116  0.22385947491288438  0.2780661584701589  1.0000
  C   C12       1.0  0.16830674675804108  0.15823373282630748  0.14774601457710568  1.0000
  C   C13       1.0  0.15932201087979506  0.007904290285317474  0.14440597485913265  1.0000
  C   C14       1.0  0.14460691713350188  0.9245846598345423  0.2742653875763897  1.0000
  C   C15       1.0  0.13862439155603956  0.9887914194017507  0.4069743213387709  1.0000
  N   N3        1.0  0.16581941869579914  0.9372189411535734  0.011395242579171017  1.0000
  C   C16       1.0  0.18132270865465783  0.013903653994064905  0.8707536061772783  1.0000
  H   H4        1.0  0.16526582046231858  0.405690084351611  0.6449938143145618  1.0000
  H   H5        1.0  0.16589893125275082  0.3404901333645327  0.2762979821077145  1.0000
  H   H6        1.0  0.1800782893029158  0.22599236059188968  0.04984911346797395  1.0000
  H   H7        1.0  0.14004074912566078  0.8081640007555582  0.2719917865507105  1.0000
  H   H8        1.0  0.1756161151977167  0.8604539660602986  0.7580025883425554  1.0000
  H   H9        1.0  0.15900640364455002  0.824877568839937  0.01438384648606084  1.0000
  H   H10       1.0  0.12137100480493063  0.09226146173093318  0.8457127084258305  1.0000
  H   H11       1.0  0.25120028305138936  0.07145740485148777  0.8709861792879465  1.0000
  H   H12       1.0  0.18340496872503187  0.9357319172250621  0.7854317255196288  1.0000
  C   C17       1.0  0.13985272171740287  0.561502477037825  0.9844510768545117  1.0000
  C   C18       1.0  0.06383616899725708  0.6317979591331992  0.052149458859245046  1.0000
  C   C19       1.0  0.9942187344663111  0.7116813850526411  0.9707323140431062  1.0000
  C   C20       1.0  0.9993254550878526  0.7229421004053225  0.8201318580687753  1.0000
  C   C21       1.0  0.07340469890413905  0.6518715050758479  0.7507263954244259  1.0000
  C   C22       1.0  0.14333926771385036  0.5687955749310534  0.8309014180782981  1.0000
  C   C23       1.0  0.9277329038490021  0.8061959825998279  0.7363965097684693  1.0000
  C   C24       1.0  0.86778701396713  0.8759097395171291  0.6662529410590259  1.0000
  C   C25       1.0  0.7950534507065774  0.9604955962848707  0.5811341037808503  1.0000
  H   H13       1.0  0.36475096239733484  0.44510657798215275  0.09760181949447433  1.0000
  H   H14       1.0  0.05952691656722676  0.6277988846698264  0.16894762296673882  1.0000
  H   H15       1.0  0.936867672695905  0.7659051720516676  0.025455488437501336  1.0000
  H   H16       1.0  0.07514087011933968  0.6586553343094206  0.633568858880861  1.0000
  H   H17       1.0  0.29344142254657535  0.4852501538234044  0.5574574833277284  1.0000
  H   H18       1.0  0.8146423475051654  0.9646406204927155  0.46512824978832557  1.0000
  H   H19       1.0  0.7235116643674209  0.9091227279888954  0.5962455017301047  1.0000
  H   H20       1.0  0.791828815881276  0.07189223998131178  0.6174542454198901  1.0000
  Zn  Zn1       1.0  0.03581254914005207  0.565150759177274  0.40767834453216456  1.0000
  Zn  Zn2       1.0  0.24737021831756145  0.5651466372305977  0.40767353272568707  1.0000
  C   C26       1.0  0.14271840989247345  0.5616698200200212  0.6709137372933169  1.0000
  C   C27       1.0  0.1404666555828269  0.5686293978405768  0.1444382783520246  1.0000
  C   C28       1.0  0.13971917456136268  0.8285870942047697  0.4014965088760296  1.0000
  C   C29       1.0  0.14346583119849  0.30171039103967146  0.4138555864807614  1.0000
  O   O1        1.0  0.22095777445476067  0.571013399457567  0.19812962904917408  1.0000
  O   O2        1.0  0.2227946727401362  0.5592815980305181  0.6172183214731077  1.0000
  O   O3        1.0  0.22037167617186246  0.7748206854975053  0.3996620008935756  1.0000
  O   O4        1.0  0.22338069831523247  0.35547432138105717  0.41568584155144467  1.0000
  O   O5        1.0  0.05980199694808966  0.7748230750297267  0.39966603570046605  1.0000
  O   O6        1.0  0.062224981037519736  0.5592857201818076  0.6172222765626074  1.0000
  O   O7        1.0  0.06038807603163909  0.5710174564059678  0.19813185145330836  1.0000
  O   O8        1.0  0.06281100040562149  0.35547836894189166  0.41568817202689945  1.0000
