data_image0
_chemical_formula_structural       NC9NC3OH6C6NCOH7C7OH5Zn2C4O8
_chemical_formula_sum              "N3 C30 O11 H18 Zn2"
_cell_length_a       15.78231758774541
_cell_length_b       10.299619329790078
_cell_length_c       9.274081674992354
_cell_angle_alpha    86.07708878693475
_cell_angle_beta     89.75780300142802
_cell_angle_gamma    89.65730562172187

_space_group_name_H-M_alt    "P 1"
_space_group_IT_number       1

loop_
  _space_group_symop_operation_xyz
  'x, y, z'

loop_
  _atom_site_type_symbol
  _atom_site_label
  _atom_site_symmetry_multiplicity
  _atom_site_fract_x
  _atom_site_fract_y
  _atom_site_fract_z
  _atom_site_occupancy
  N   N1        1.0  0.8036326039934745  0.4004472981128828  0.4129762344221932  1.0000
  C   C1        1.0  0.7549871579360298  0.3185998974791542  0.43969166290977674  1.0000
  C   C2        1.0  0.6945920615599482  0.2170073816245206  0.4728523922885917  1.0000
  C   C3        1.0  0.7140781191308734  0.08939009848888538  0.5144194788135237  1.0000
  C   C4        1.0  0.6372617067673574  0.027542435683861836  0.5346472571586522  1.0000
  C   C5        1.0  0.5756115516718402  0.12199420092085259  0.5039286709610744  1.0000
  C   C6        1.0  0.48249609966382784  0.10453233571284783  0.5097099153694178  1.0000
  C   C7        1.0  0.4288995513534427  0.21160377094484753  0.47470338599425643  1.0000
  C   C8        1.0  0.3406729734963482  0.19728552430308532  0.47945181515252844  1.0000
  C   C9        1.0  0.2863842809172646  0.3074721845627395  0.4434176002954598  1.0000
  N   N2        1.0  0.24274905194272345  0.3960480318571571  0.41444931161068316  1.0000
  C   C10       1.0  0.305361428015814  0.07573649983322928  0.5192611311006747  1.0000
  C   C11       1.0  0.3580273346651056  0.9688864708422736  0.5542001212098535  1.0000
  C   C12       1.0  0.44606770307343374  0.9828113608798889  0.5495807273969577  1.0000
  O   O1        1.0  0.612224995870821  0.2339309465662434  0.46741498777672996  1.0000
  H   H1        1.0  0.7764791840833508  0.046352516576992915  0.5283809557540797  1.0000
  H   H2        1.0  0.6283888321148322  0.9258476921907594  0.5677878750315561  1.0000
  H   H3        1.0  0.45563645033053635  0.3061904220681388  0.4437194391251118  1.0000
  H   H4        1.0  0.23722812814515093  0.06360966996874494  0.5232804480796662  1.0000
  H   H5        1.0  0.3305610169283597  0.8749464669515374  0.5849727158683065  1.0000
  H   H6        1.0  0.4850366708575987  0.8981786871364936  0.5772640242870537  1.0000
  C   C13       1.0  0.023082615419111278  0.016879969405942497  0.4136748783980031  1.0000
  C   C14       1.0  0.9826699450639835  0.024291269745572608  0.2786385883749847  1.0000
  C   C15       1.0  0.9635743268761962  0.911276580460142  0.20960411809241286  1.0000
  C   C16       1.0  0.9829219056508569  0.7891311807066926  0.27875039273988556  1.0000
  C   C17       1.0  0.02330704887122948  0.7796054381797161  0.4137631702397016  1.0000
  C   C18       1.0  0.04346008157514933  0.8940912967083627  0.48019076934969407  1.0000
  N   N3        1.0  0.9210407219714715  0.9226789607222025  0.07242786962784908  1.0000
  C   C19       1.0  0.9347461918973612  0.8369510669187633  0.9590625039474987  1.0000
  O   O2        1.0  0.9942108456555263  0.7546796597832511  0.965321428279284  1.0000
  H   H7        1.0  0.0985058066101307  0.21011554912421487  0.6691039514642416  1.0000
  H   H8        1.0  0.9664286173896252  0.11813124058588431  0.22575581167837067  1.0000
  H   H9        1.0  0.9649718684248666  0.7015165810272775  0.22883167366203086  1.0000
  H   H10       1.0  0.07462374752951685  0.8875023110154291  0.5842806808171699  1.0000
  H   H11       1.0  0.037668437447228004  0.4484501012704659  0.46660298936608796  1.0000
  H   H12       1.0  0.8818997818295593  0.0034848560365130466  0.04895250840151633  1.0000
  H   H13       1.0  0.8948420358037509  0.8454600215122432  0.8642773479108304  1.0000
  C   C20       1.0  0.024623808276601912  0.3948239785001169  0.9904536831456401  1.0000
  C   C21       1.0  0.09345465222075838  0.45065448225701965  0.05921714342078377  1.0000
  C   C22       1.0  0.1574900202029944  0.5161137958248507  0.9789565869321399  1.0000
  C   C23       1.0  0.1526774610730961  0.5260949703429725  0.827818880677031  1.0000
  C   C24       1.0  0.08562193238320898  0.46950619390604725  0.7578584636190051  1.0000
  C   C25       1.0  0.02176589197418676  0.4016613852549474  0.8369842914053063  1.0000
  C   C26       1.0  0.22829729540199817  0.5745097571258238  0.05464582407731999  1.0000
  O   O3        1.0  0.28662677092735867  0.6344314005025556  0.9855087109644188  1.0000
  H   H14       1.0  0.8238421616244738  0.3124730572915986  0.10113925498301879  1.0000
  H   H15       1.0  0.20120663226709812  0.5766146020260763  0.7633796648005142  1.0000
  H   H16       1.0  0.0848379922027595  0.4762240268087681  0.6407828444326937  1.0000
  H   H17       1.0  0.8879227063084549  0.3408676372445523  0.5614438215817867  1.0000
  H   H18       1.0  0.23076502541254584  0.56622884021722  0.1715603442450826  1.0000
  Zn  Zn1       1.0  0.9303520926908269  0.3991743631087783  0.4134096489606123  1.0000
  Zn  Zn2       1.0  0.11602949185485073  0.397310462592307  0.41402767845200095  1.0000
  C   C27       1.0  0.022302681260713216  0.3951953342350898  0.6769713094309786  1.0000
  C   C28       1.0  0.024080930881015483  0.40129111086931135  0.15046616638976906  1.0000
  C   C29       1.0  0.02327968100215226  0.635387713783433  0.40800273571138956  1.0000
  C   C30       1.0  0.02310386706224186  0.16109717228001674  0.41943481656295867  1.0000
  O   O4        1.0  0.09436233991727766  0.4027485333146899  0.20440235581405597  1.0000
  O   O5        1.0  0.09294612301982874  0.3923222713547559  0.6235037750610584  1.0000
  O   O6        1.0  0.09373410772401014  0.5862806771277935  0.40630974577972295  1.0000
  O   O7        1.0  0.0935742922215674  0.20879013659497092  0.42159627681352463  1.0000
  O   O8        1.0  0.9528072289615526  0.5876946897435247  0.40584105038060403  1.0000
  O   O9        1.0  0.9520192449721482  0.39373784364884856  0.6230350029898544  1.0000
  O   O10       1.0  0.9534354677630833  0.4041640463555168  0.20393185080482337  1.0000
  O   O11       1.0  0.9526474196963441  0.21020564121988938  0.42112587986767425  1.0000
