data_image0
_chemical_formula_structural       NC9NC3OH6C6N2CH8C10ClC2H7Zn2C4O8
_chemical_formula_sum              "N4 C35 O9 H21 Cl1 Zn2"
_cell_length_a       15.78231758774541
_cell_length_b       10.299967256147015
_cell_length_c       10.299772619071826
_cell_angle_alpha    85.53975729493712
_cell_angle_beta     90.08793308491676
_cell_angle_gamma    89.6311599672419

_space_group_name_H-M_alt    "P 1"
_space_group_IT_number       1

loop_
  _space_group_symop_operation_xyz
  'x, y, z'

loop_
  _atom_site_type_symbol
  _atom_site_label
  _atom_site_symmetry_multiplicity
  _atom_site_fract_x
  _atom_site_fract_y
  _atom_site_fract_z
  _atom_site_occupancy
  N   N1        1.0  0.7977851972711496  0.41368859837869826  0.5698385034555773  1.0000
  C   C1        1.0  0.7492555507495485  0.3316193900375568  0.5939225202432296  1.0000
  C   C2        1.0  0.6890041910746093  0.22975155365190436  0.6238169895910746  1.0000
  C   C3        1.0  0.7086705037661971  0.10178916037148156  0.6612898506446171  1.0000
  C   C4        1.0  0.6319417329922109  0.03977355195186094  0.6795252173101765  1.0000
  C   C5        1.0  0.5701583251250116  0.13448035517130671  0.6518322917384731  1.0000
  C   C6        1.0  0.47706785774642596  0.11697048587781064  0.6570440568483888  1.0000
  C   C7        1.0  0.4233196244650983  0.22433256989121464  0.6254856224499662  1.0000
  C   C8        1.0  0.3351135605780968  0.20997489460909266  0.629766305604714  1.0000
  C   C9        1.0  0.28066873838213996  0.3204607367423862  0.5972814157400753  1.0000
  N   N2        1.0  0.23690799645321398  0.40927709961005726  0.5711664678656417  1.0000
  C   C10       1.0  0.2999744475108867  0.08809534127446893  0.6656544253554945  1.0000
  C   C11       1.0  0.35279174206073166  0.9809552239826261  0.6971519706827611  1.0000
  C   C12       1.0  0.44081215522412637  0.9949184712939851  0.6929876128631849  1.0000
  O   O1        1.0  0.6066134776371505  0.24672025825926736  0.6189151159634713  1.0000
  H   H1        1.0  0.7711321642508424  0.05863566675105789  0.6738761939216388  1.0000
  H   H2        1.0  0.6232125566942285  0.9378036579757805  0.7094015818335697  1.0000
  H   H3        1.0  0.4499223225326497  0.31917647488857126  0.5975535801937772  1.0000
  H   H4        1.0  0.23185851385222292  0.07593513709510291  0.6692778189506696  1.0000
  H   H5        1.0  0.32545870937389587  0.8867597210084509  0.7248934785983805  1.0000
  H   H6        1.0  0.4799010641929604  0.9100559506399203  0.7179441368429413  1.0000
  C   C13       1.0  0.017351908553290052  0.030122616335998876  0.5705282595649094  1.0000
  C   C14       1.0  0.00867779055478145  0.039755971848331115  0.43431292982561676  1.0000
  C   C15       1.0  0.004319477073875915  0.9279277510013597  0.3658706798878846  1.0000
  C   C16       1.0  0.008672750592432218  0.8045463424311091  0.4342324361563448  1.0000
  C   C17       1.0  0.017349355636733465  0.7928330496799078  0.570487907311652  1.0000
  C   C18       1.0  0.021635093034011878  0.9061986192087417  0.6377890224012179  1.0000
  N   N3        1.0  0.9954747161647021  0.9425148482539231  0.22697497635848188  1.0000
  N   N4        1.0  0.9911095136785305  0.8452577711207446  0.15842588930007628  1.0000
  C   C19       1.0  0.9821588823134845  0.8644018214540309  0.017866113810531603  1.0000
  H   H7        1.0  0.03373181203607146  0.21923853985015151  0.8277414454054423  1.0000
  H   H8        1.0  0.00525526932313025  0.13434095447244965  0.38056728697377284  1.0000
  H   H9        1.0  0.005306010487138073  0.7178792827356918  0.3813625097312395  1.0000
  H   H10       1.0  0.028320041030895256  0.8979642278944976  0.7427677055391082  1.0000
  H   H11       1.0  0.033735462429989926  0.5634891707353158  0.8278113248110823  1.0000
  H   H12       1.0  0.9227937504474092  0.9191838673595414  0.9926895688366535  1.0000
  H   H13       1.0  0.9795282531483545  0.768203018432995  0.9765535651585266  1.0000
  H   H14       1.0  0.03724378655791202  0.9193664109599667  0.9758300018627035  1.0000
  C   C20       1.0  0.01733240360462827  0.4115976788851139  0.18913776767488824  1.0000
  C   C21       1.0  0.10395091700666459  0.4419490581887555  0.18598539498634659  1.0000
  C   C22       1.0  0.14786004216848958  0.457206668747828  0.06725892679418655  1.0000
  C   C23       1.0  0.10398779874941372  0.44170703718937476  0.9507179002118495  1.0000
  C   C24       1.0  0.017368881565803296  0.41135792243082875  0.9518784086165937  1.0000
  C   C25       1.0  0.9745263627209457  0.3964727950723572  0.07157430147220212  1.0000
  C   C26       1.0  0.2394956105105427  0.4893137793865238  0.06497714243145936  1.0000
  C   C27       1.0  0.29530976065294867  0.4281287069014559  0.9820648921530459  1.0000
  C   C28       1.0  0.38154202446570173  0.45846212642009626  0.9801035105621569  1.0000
  C   C29       1.0  0.41305923537596234  0.5501276818868039  0.06065431514429288  1.0000
  Cl  Cl1       1.0  0.5212683632359059  0.5880433195172556  0.057958566667439815  1.0000
  C   C30       1.0  0.3582169502895032  0.6115339665336692  0.14335645019991605  1.0000
  C   C31       1.0  0.27195028285021183  0.5814267378606752  0.1456912787210456  1.0000
  H   H15       1.0  0.1377418846450692  0.4520398676366966  0.27621092474922504  1.0000
  H   H16       1.0  0.13727271901901605  0.45511864388043644  0.8588223813578661  1.0000
  H   H17       1.0  0.9077040547673505  0.37305850022102915  0.07323813494554066  1.0000
  H   H18       1.0  0.272470130049147  0.3556432714076301  0.9200353184159762  1.0000
  H   H19       1.0  0.4238166018048022  0.41038939410655845  0.9161506968494209  1.0000
  H   H20       1.0  0.382298390341719  0.6828566142094308  0.20565643251221213  1.0000
  H   H21       1.0  0.2304546152237812  0.6313702497999223  0.20932310195839388  1.0000
  Zn  Zn1       1.0  0.9245065482653017  0.41241206387510604  0.570229218976511  1.0000
  Zn  Zn2       1.0  0.1101866175093386  0.4105430315490169  0.570786369263596  1.0000
  C   C32       1.0  0.01736010690922463  0.40622973019958836  0.8077043898512652  1.0000
  C   C33       1.0  0.01733508648664039  0.41672698335681146  0.33331133185323303  1.0000
  C   C34       1.0  0.01734524116234381  0.6486661902253719  0.5653203653803549  1.0000
  C   C35       1.0  0.017349888882395303  0.17428896368013724  0.5756954254553757  1.0000
  O   O2        1.0  0.0878006055035056  0.41773347115522186  0.3819087329630222  1.0000
  O   O3        1.0  0.08782146408962155  0.4038037105295372  0.759529479122141  1.0000
  O   O4        1.0  0.08780850997881928  0.5995742271649929  0.5638026615330347  1.0000
  O   O5        1.0  0.08781349624959134  0.2219629644781531  0.5776354529864887  1.0000
  O   O6        1.0  0.9468796061615543  0.6009921315851949  0.5633801350566591  1.0000
  O   O7        1.0  0.9468925602599877  0.4052231752398545  0.7591068833175741  1.0000
  O   O8        1.0  0.9468717016557157  0.4191528911007714  0.38148457575450634  1.0000
  O   O9        1.0  0.9468845924030227  0.22338237510454007  0.5772113931466538  1.0000
