data_image0
_chemical_formula_structural       NC5OC5NC4H8C6BrH5C6NH7Zn2C4O8
_chemical_formula_sum              "N3 C30 O9 H20 Br1 Zn2"
_cell_length_a       19.189071930511275
_cell_length_b       9.276564384272257
_cell_length_c       9.274774538082513
_cell_angle_alpha    85.01137938942293
_cell_angle_beta     90.32765294797488
_cell_angle_gamma    90.57707898574843

_space_group_name_H-M_alt    "P 1"
_space_group_IT_number       1

loop_
  _space_group_symop_operation_xyz
  'x, y, z'

loop_
  _atom_site_type_symbol
  _atom_site_label
  _atom_site_symmetry_multiplicity
  _atom_site_fract_x
  _atom_site_fract_y
  _atom_site_fract_z
  _atom_site_occupancy
  N   N1        1.0  0.6593842714345831  0.5919290498200639  0.40619190631838364  1.0000
  C   C1        1.0  0.605121291638687  0.6433169292166936  0.3858207628469655  1.0000
  C   C2        1.0  0.5376251338501994  0.7072348908553059  0.3604821223352455  1.0000
  C   C3        1.0  0.5281335277714452  0.815843144728317  0.24768402476722343  1.0000
  C   C4        1.0  0.462569102385472  0.8780111637026717  0.22321029983449361  1.0000
  C   C5        1.0  0.405832561747566  0.8314690680116412  0.31002862268124054  1.0000
  O   O1        1.0  0.341109765025249  0.8976916208204283  0.28303444710015335  1.0000
  C   C6        1.0  0.2758886623068311  0.8312640401234175  0.30940178670435947  1.0000
  C   C7        1.0  0.21964961271884184  0.9171286560413796  0.34295672427301216  1.0000
  C   C8        1.0  0.1536192540712624  0.8552694056049291  0.36837553921800215  1.0000
  C   C9        1.0  0.143161567100285  0.7067541859045379  0.35901100777600736  1.0000
  C   C10       1.0  0.07518584814497441  0.643052074647991  0.38501011583856704  1.0000
  N   N2        1.0  0.0205373695147174  0.5918377908454966  0.40591273015587914  1.0000
  C   C11       1.0  0.1989194918917527  0.6205657967336082  0.32332552852161434  1.0000
  C   C12       1.0  0.2649413479421397  0.6824684213763932  0.29795516926619947  1.0000
  C   C13       1.0  0.41581651512597845  0.7238474737329348  0.424624408564481  1.0000
  C   C14       1.0  0.4813722031423383  0.6616743033028059  0.4491663480508592  1.0000
  H   H1        1.0  0.5713604912509974  0.8525444770176835  0.17887237834013714  1.0000
  H   H2        1.0  0.45569228610673795  0.9620948996058809  0.13593476117048714  1.0000
  H   H3        1.0  0.22727421190940658  0.03207797616463191  0.3501670860803379  1.0000
  H   H4        1.0  0.1107852306050627  0.9231808904640623  0.39510465642056025  1.0000
  H   H5        1.0  0.19128412623052354  0.5058017788027744  0.31436485595003827  1.0000
  H   H6        1.0  0.3070563830110314  0.6148217076523355  0.2674321099864912  1.0000
  H   H7        1.0  0.3733183778366234  0.6895402056883018  0.4961603244199517  1.0000
  H   H8        1.0  0.48826484283999777  0.5787435624368529  0.5376538828890238  1.0000
  C   C15       1.0  0.8378656532887315  0.16839979277031913  0.4064229943535509  1.0000
  C   C16       1.0  0.828551596641081  0.25304941356139676  0.2745208328083486  1.0000
  C   C17       1.0  0.8257266214281425  0.1891985150742974  0.1438457540626488  1.0000
  C   C18       1.0  0.8321930045563709  0.039800592758225894  0.14259156275717902  1.0000
  C   C19       1.0  0.8402735883255779  0.953475313839793  0.27249998557287025  1.0000
  C   C20       1.0  0.8420626618584681  0.015355850761048943  0.40569406205311054  1.0000
  Br  Br1       1.0  0.8288391486084999  0.9530041809505805  0.9632821191579373  1.0000
  H   H9        1.0  0.8181128038623835  0.4289151691083331  0.6410771229153394  1.0000
  H   H10       1.0  0.8251053801158178  0.3697281795315173  0.2720526865761857  1.0000
  H   H11       1.0  0.8191720377413079  0.2562953045725813  0.04331972900887937  1.0000
  H   H12       1.0  0.8434888907740152  0.8372615992189993  0.26938586856081415  1.0000
  H   H13       1.0  0.881159158196713  0.7154570776888233  0.630446491237916  1.0000
  C   C21       1.0  0.8387317887765892  0.5955665497532405  0.9822400304199178  1.0000
  C   C22       1.0  0.8885327336066371  0.6806554415593831  0.04886512670141818  1.0000
  C   C23       1.0  0.9414012048513142  0.7538643258962447  0.9679966029132375  1.0000
  C   C24       1.0  0.9448956256507723  0.7423162998718589  0.8190263793697665  1.0000
  C   C25       1.0  0.8953340016794936  0.660404164847693  0.7506958137295153  1.0000
  C   C26       1.0  0.8411965169851358  0.588189082824739  0.8298770715382262  1.0000
  N   N3        1.0  0.9920011730887474  0.8387523873656288  0.03762649850995059  1.0000
  H   H14       1.0  0.7331690381793502  0.3136866167753244  0.10848348230800255  1.0000
  H   H15       1.0  0.8873122168251638  0.6874952695881904  0.1648803397789902  1.0000
  H   H16       1.0  0.9857100143753412  0.7980232302405142  0.7554163185420628  1.0000
  H   H17       1.0  0.8984216258434434  0.6563919947808492  0.6345238139718337  1.0000
  H   H18       1.0  0.7679778140180651  0.4027237620978792  0.5640108110937527  1.0000
  H   H19       1.0  0.9900223365191427  0.8477962892686015  0.14899020316918477  1.0000
  H   H20       1.0  0.03180409819963172  0.8933255265472219  0.9783068758963993  1.0000
  Zn  Zn1       1.0  0.7636052681363418  0.5918987948364081  0.4061196736130064  1.0000
  Zn  Zn2       1.0  0.9163163662632239  0.5918561900505639  0.40599677326503364  1.0000
  C   C27       1.0  0.8407006112883557  0.5838386042419814  0.6696604678689569  1.0000
  C   C28       1.0  0.8392227001402613  0.5999181985196329  0.14245611775565625  1.0000
  C   C29       1.0  0.8412490253153415  0.8553132061022871  0.4000806753075927  1.0000
  C   C30       1.0  0.8386742256416312  0.3284418633969608  0.41203598879550585  1.0000
  O   O2        1.0  0.8973404891805631  0.6013561918934993  0.19617946563034816  1.0000
  O   O3        1.0  0.898487005632972  0.5823671905238996  0.6158434269518435  1.0000
  O   O4        1.0  0.8989290800240184  0.8015863519476947  0.39815583647508546  1.0000
  O   O5        1.0  0.8968983624160243  0.3821370417422225  0.4138669479268682  1.0000
  O   O6        1.0  0.7830232198707241  0.8016179431609243  0.39824949898551887  1.0000
  O   O7        1.0  0.7825811538385047  0.5824005150156699  0.6159370110181386  1.0000
  O   O8        1.0  0.781434632137859  0.6013894812339977  0.19627131454197858  1.0000
  O   O9        1.0  0.780992505633995  0.3821703198263775  0.4139589050530834  1.0000
