data_image0
_chemical_formula_structural       NC5NC3OH4C6BrH5C9H8Zn2C4O8
_chemical_formula_sum              "N2 C27 O9 H17 Br1 Zn2"
_cell_length_a       13.84702359539666
_cell_length_b       9.276564384272257
_cell_length_c       9.275155815604963
_cell_angle_alpha    86.0004437210585
_cell_angle_beta     90.34320021190106
_cell_angle_gamma    90.58678901707502

_space_group_name_H-M_alt    "P 1"
_space_group_IT_number       1

loop_
  _space_group_symop_operation_xyz
  'x, y, z'

loop_
  _atom_site_type_symbol
  _atom_site_label
  _atom_site_symmetry_multiplicity
  _atom_site_fract_x
  _atom_site_fract_y
  _atom_site_fract_z
  _atom_site_occupancy
  N   N1        1.0  0.9134446385669481  0.5645704074319466  0.4085812707885035  1.0000
  C   C1        1.0  0.841508353623994  0.5564442365813538  0.47163817329645646  1.0000
  C   C2        1.0  0.7519206769768028  0.5463254372582913  0.5501573032062943  1.0000
  C   C3        1.0  0.6640865546713374  0.5561008336358302  0.4743021874560169  1.0000
  C   C4        1.0  0.5764722258820285  0.5464390120118723  0.5492755741800117  1.0000
  C   C5        1.0  0.48636380949913105  0.5565035486663727  0.4711776203418358  1.0000
  N   N2        1.0  0.4139282928830014  0.564594665409216  0.40839309161932735  1.0000
  C   C6        1.0  0.5766874089079315  0.5269726283925922  0.7003294416823314  1.0000
  C   C7        1.0  0.664141524262473  0.5171880967517117  0.7762525854886364  1.0000
  C   C8        1.0  0.7520728808064985  0.5267876649838477  0.7017638562801342  1.0000
  O   O1        1.0  0.8392477991769624  0.5169864451068706  0.7778183966281578  1.0000
  H   H1        1.0  0.6639244304193966  0.5711818306679135  0.35727864851985647  1.0000
  H   H2        1.0  0.5093271440872884  0.5193682578738346  0.7593369472645646  1.0000
  H   H3        1.0  0.6635245328318475  0.5021370185157517  0.8930447257895984  1.0000
  H   H4        1.0  0.8411400942251339  0.5029000286868717  0.8871241341256865  1.0000
  C   C9        1.0  0.1607830478979002  0.1411046014542765  0.40885680371355426  1.0000
  C   C10       1.0  0.14784871759764706  0.2234687650550806  0.27713636023198696  1.0000
  C   C11       1.0  0.1439071659160005  0.15735580359560797  0.14664291491234982  1.0000
  C   C12       1.0  0.1528679820219854  0.007938333480828738  0.14539209560778674  1.0000
  C   C13       1.0  0.16409256580615983  0.9238636024400775  0.2751212730080901  1.0000
  C   C14       1.0  0.16659908659549494  0.988049444475487  0.408129941262932  1.0000
  Br  Br1       1.0  0.14818356655806775  0.9180381431035806  0.9663320164240957  1.0000
  H   H5        1.0  0.13345765452192015  0.4056737101952807  0.6431785450294467  1.0000
  H   H6        1.0  0.14307246802885554  0.34010367578530465  0.27467079362063496  1.0000
  H   H7        1.0  0.13480331112040234  0.2227109686435318  0.04625551828456852  1.0000
  H   H8        1.0  0.16854767471738108  0.8075970740582827  0.27201230786085717  1.0000
  H   H9        1.0  0.22082471712845253  0.692052673653035  0.6325785606870066  1.0000
  C   C15       1.0  0.16189660059730326  0.5609318433114288  0.9852659554158936  1.0000
  C   C16       1.0  0.0868312299252554  0.6311954631679244  0.053048936520897476  1.0000
  C   C17       1.0  0.018300137343464577  0.7110434939595189  0.9717216200372225  1.0000
  C   C18       1.0  0.023564819538392845  0.7222999432631225  0.8211282120727388  1.0000
  C   C19       1.0  0.0966814953377819  0.6512614269327328  0.7516382619327011  1.0000
  C   C20       1.0  0.16548550969033293  0.5682221869470172  0.8317207939336768  1.0000
  C   C21       1.0  0.953104756618407  0.8055169835834817  0.7374861200797079  1.0000
  C   C22       1.0  0.8941071720483597  0.8751998906124846  0.6674206396276086  1.0000
  C   C23       1.0  0.8225242171500736  0.9597483162878496  0.5823965490062615  1.0000
  H   H10       1.0  0.38525189718560826  0.4445935034225139  0.09823935285695828  1.0000
  H   H11       1.0  0.08246507256150615  0.6271977827265185  0.16984553676903674  1.0000
  H   H12       1.0  0.961683204238254  0.7652427657415553  0.02650956774553271  1.0000
  H   H13       1.0  0.09851239432928338  0.6580426211734782  0.6344854757012908  1.0000
  H   H14       1.0  0.3144765238926439  0.48471753106515547  0.5581538270928115  1.0000
  H   H15       1.0  0.8421769871262048  0.9638926287974448  0.4663866253220194  1.0000
  H   H16       1.0  0.7502461843097058  0.9083925711749309  0.5974939475602983  1.0000
  H   H17       1.0  0.8208448338828246  0.0711001523943362  0.6188066368078755  1.0000
  Zn  Zn1       1.0  0.0578734171586932  0.5645736187767638  0.4085352799633677  1.0000
  Zn  Zn2       1.0  0.2694994590725559  0.5645797557363221  0.40845085465933434  1.0000
  C   C24       1.0  0.16476553858582532  0.5610992581586163  0.6717276707784667  1.0000
  C   C25       1.0  0.16260966168997085  0.5680559371885205  0.14525860281784286  1.0000
  C   C26       1.0  0.16547040649216038  0.8279093981678298  0.40252418327174433  1.0000
  C   C27       1.0  0.16190470999846207  0.3012440652547408  0.4144621686783748  1.0000
  O   O2        1.0  0.24315990831146556  0.5704428857897981  0.19892156327289148  1.0000
  O   O3        1.0  0.24483455185391256  0.5587158758952409  0.6180002195258567  1.0000
  O   O4        1.0  0.2454026653261048  0.774168451103229  0.40061649784997444  1.0000
  O   O5        1.0  0.24259172223830205  0.35499031996499864  0.41630517690635216  1.0000
  O   O6        1.0  0.0847810817753436  0.7741630545474987  0.40068095773757806  1.0000
  O   O7        1.0  0.08421297987072209  0.5587122112634864  0.6180646010808784  1.0000
  O   O8        1.0  0.08253832870051593  0.5704391559809641  0.19898421209314  1.0000
  O   O9        1.0  0.0819701430107207  0.35498658077238665  0.4163679337902497  1.0000
