data_image0
_chemical_formula_structural       NC5NC3OH4C9H8C6NCOH5Zn2C4O8
_chemical_formula_sum              "N3 C28 O10 H17 Zn2"
_cell_length_a       13.84702359539666
_cell_length_b       9.275152443626249
_cell_length_c       9.27373355559583
_cell_angle_alpha    85.97646638804791
_cell_angle_beta     89.99675348252173
_cell_angle_gamma    90.5743638874884

_space_group_name_H-M_alt    "P 1"
_space_group_IT_number       1

loop_
  _space_group_symop_operation_xyz
  'x, y, z'

loop_
  _atom_site_type_symbol
  _atom_site_label
  _atom_site_symmetry_multiplicity
  _atom_site_fract_x
  _atom_site_fract_y
  _atom_site_fract_z
  _atom_site_occupancy
  N   N1        1.0  0.9196422230291651  0.5617068509529608  0.4045321121754073  1.0000
  C   C1        1.0  0.8474526146901191  0.553711885212266  0.4676091786940742  1.0000
  C   C2        1.0  0.7575494970393922  0.5437564638949062  0.5461534170573414  1.0000
  C   C3        1.0  0.6700201133992922  0.5533740253616615  0.4702740449733902  1.0000
  C   C4        1.0  0.5821045881909583  0.5438682039805622  0.5452714062170696  1.0000
  C   C5        1.0  0.49230992078613955  0.5537702389926333  0.46714847856927283  1.0000
  N   N2        1.0  0.42012663333097927  0.5617307173804214  0.4043438728124021  1.0000
  C   C6        1.0  0.5817129307736963  0.5247161244008547  0.696373576958409  1.0000
  C   C7        1.0  0.6688620342215271  0.5150895690981936  0.7723209998115583  1.0000
  C   C8        1.0  0.7570926401028019  0.5245341456018466  0.6978084505317521  1.0000
  O   O1        1.0  0.8439620186617532  0.5148911755459791  0.7738873113061921  1.0000
  H   H1        1.0  0.6703281168894364  0.5682115267074075  0.3532130845366288  1.0000
  H   H2        1.0  0.5141156105208071  0.5172345332284614  0.7553999517791257  1.0000
  H   H3        1.0  0.6677758446503799  0.5002815051002361  0.8891504873615397  1.0000
  H   H4        1.0  0.8454151912937767  0.5010321960578408  0.8832280023869394  1.0000
  C   C9        1.0  0.16704049319598901  0.13810215264315892  0.40591039794443584  1.0000
  C   C10       1.0  0.13217786196694004  0.2195250024143509  0.2834864299472797  1.0000
  C   C11       1.0  0.10629161775250108  0.15274291631458345  0.1587667574674181  1.0000
  C   C12       1.0  0.1148614385327571  0.003350245868236402  0.15400160041223002  1.0000
  C   C13       1.0  0.14783539809163454  0.9202280467229206  0.27539152693810154  1.0000
  C   C14       1.0  0.1727375212524836  0.9853244741266872  0.40297801005359224  1.0000
  C   C15       1.0  0.08867093057639508  0.9348123454316479  0.024846303885934343  1.0000
  C   C16       1.0  0.06674249825922196  0.8773944310603627  0.9166989924029258  1.0000
  C   C17       1.0  0.04013667963250044  0.8077159465033795  0.7854811966347257  1.0000
  H   H5        1.0  0.30586534045883407  0.22285125245979476  0.6936827843055723  1.0000
  H   H6        1.0  0.12709062586625963  0.33603737739192474  0.28303501037557055  1.0000
  H   H7        1.0  0.08045261673967219  0.2179790487213111  0.06543700690689458  1.0000
  H   H8        1.0  0.15190061150988465  0.80387503413462  0.2713695806231262  1.0000
  H   H9        1.0  0.26310894453659683  0.6921435461968105  0.5998063836113252  1.0000
  H   H10       1.0  0.05779390330756074  0.691139552140933  0.7989384711912795  1.0000
  H   H11       1.0  0.9615311430327699  0.8200828788702059  0.7657808367570764  1.0000
  H   H12       1.0  0.08090106765824735  0.8590645881450341  0.6921790157712864  1.0000
  C   C18       1.0  0.16980318128975627  0.5571683105590909  0.9812329687902457  1.0000
  C   C19       1.0  0.08098749357295157  0.5488843482144738  0.05524648374905872  1.0000
  C   C20       1.0  0.9931286703059249  0.5522908744151585  0.9803182585758844  1.0000
  C   C21       1.0  0.9940913242009525  0.568670450519138  0.8289135110738406  1.0000
  C   C22       1.0  0.08144042416300756  0.5748017576870226  0.7537040003265285  1.0000
  C   C23       1.0  0.16997482170172984  0.5662582624245216  0.8276554981281294  1.0000
  N   N3        1.0  0.9040484142566656  0.5472270959504881  0.060383758990130376  1.0000
  C   C24       1.0  0.8165957216463345  0.4807945378284905  0.013863989878624803  1.0000
  O   O2        1.0  0.8155745550209769  0.4044533282052152  0.9067775771217415  1.0000
  H   H13       1.0  0.398048177798237  0.6573461162874141  0.07711410190421009  1.0000
  H   H14       1.0  0.9274601712818132  0.5782718964267857  0.7682907490299016  1.0000
  H   H15       1.0  0.32442218827178126  0.6276325870425898  0.5422789052205497  1.0000
  H   H16       1.0  0.903960478478636  0.585583333062279  0.1636701308716646  1.0000
  H   H17       1.0  0.750670497428626  0.49288944167862075  0.07426779178900311  1.0000
  Zn  Zn1       1.0  0.06407118677442081  0.5617099657083511  0.4044861137150939  1.0000
  Zn  Zn2       1.0  0.275697568539538  0.5617159254384856  0.4044016737652434  1.0000
  C   C25       1.0  0.16990158155360535  0.5587932675619538  0.6676833885715285  1.0000
  C   C26       1.0  0.16986949698183887  0.5646344453137297  0.14120453313854098  1.0000
  C   C27       1.0  0.17165452000060832  0.8251197175725493  0.39778935325922227  1.0000
  C   C28       1.0  0.16811647468280325  0.2983062629744828  0.4110986513135626  1.0000
  O   O3        1.0  0.250202819794654  0.5671361166397342  0.19486042875348386  1.0000
  O   O4        1.0  0.2501877783974223  0.5562950268224376  0.6139629938920652  1.0000
  O   O5        1.0  0.25160221603403143  0.7713570194264063  0.3960216460727613  1.0000
  O   O6        1.0  0.24878830999177434  0.35207413319265  0.4128016685076408  1.0000
  O   O7        1.0  0.09098037310449558  0.7713517579536422  0.396086118993926  1.0000
  O   O8        1.0  0.08956594710223012  0.55629149767778  0.6140273839717436  1.0000
  O   O9        1.0  0.08958098787428925  0.567132518617609  0.19492308629552935  1.0000
  O   O10       1.0  0.0881664780199911  0.35207052601309563  0.4128644341360628  1.0000
