data_image0
_chemical_formula_structural       NC9NC3SH6C7ONH7C8NH11Zn2C4O8
_chemical_formula_sum              "N4 C31 S1 H24 O9 Zn2"
_cell_length_a       16.77567553997237
_cell_length_b       10.297852080636378
_cell_length_c       9.27565297233854
_cell_angle_alpha    85.93999439630132
_cell_angle_beta     90.8258093540976
_cell_angle_gamma    90.87229915396684

_space_group_name_H-M_alt    "P 1"
_space_group_IT_number       1

loop_
  _space_group_symop_operation_xyz
  'x, y, z'

loop_
  _atom_site_type_symbol
  _atom_site_label
  _atom_site_symmetry_multiplicity
  _atom_site_fract_x
  _atom_site_fract_y
  _atom_site_fract_z
  _atom_site_occupancy
  N   N1        1.0  0.7437474819214644  0.4304580699884599  0.4178496221362802  1.0000
  C   C1        1.0  0.6891828285429843  0.4800789258386913  0.46402998185014055  1.0000
  C   C2        1.0  0.6214672801354785  0.5416551242709646  0.5213362750524475  1.0000
  C   C3        1.0  0.624028245697536  0.6304098285124824  0.6268536465200876  1.0000
  C   C4        1.0  0.5485294176783665  0.6741061952700864  0.6618362352440685  1.0000
  C   C5        1.0  0.4862068984635974  0.6195683582827493  0.5834505596554278  1.0000
  C   C6        1.0  0.3997616247710122  0.6457120400101958  0.5954984477574703  1.0000
  C   C7        1.0  0.3426887353659102  0.5657111810710542  0.5307919417136491  1.0000
  C   C8        1.0  0.2610886325046536  0.5898368157096112  0.54166675699854  1.0000
  C   C9        1.0  0.2033422952287736  0.5071573425322062  0.4754111239963625  1.0000
  N   N2        1.0  0.1569313022666323  0.44069489614473456  0.42215138428871324  1.0000
  C   C10       1.0  0.23573077592370406  0.6942758080962832  0.6170692901581583  1.0000
  C   C11       1.0  0.2917098254660117  0.7744323502017803  0.681263468909463  1.0000
  C   C12       1.0  0.3731535759031269  0.7506720445190568  0.6707156907749743  1.0000
  S   S1        1.0  0.526340011761291  0.5167713453787053  0.47120918048220023  1.0000
  H   H1        1.0  0.6786385495046497  0.6625893887725811  0.6776587890755974  1.0000
  H   H2        1.0  0.5405938818276507  0.7425212855992958  0.7434088995664407  1.0000
  H   H3        1.0  0.3612574117469648  0.48403956578190566  0.47256501782963906  1.0000
  H   H4        1.0  0.1727804447887509  0.713793601242048  0.6260493859331364  1.0000
  H   H5        1.0  0.271959138820774  0.8554901522913081  0.739137921106293  1.0000
  H   H6        1.0  0.41478993843377693  0.8156305637293967  0.7204051280849997  1.0000
  C   C13       1.0  0.9504282334600573  0.05414160206553432  0.4200100483978954  1.0000
  C   C14       1.0  0.9388857312159761  0.06249289941872149  0.2693154733229901  1.0000
  C   C15       1.0  0.932329308149025  0.949617891953329  0.19301661909263057  1.0000
  C   C16       1.0  0.9386839661107407  0.8272353941009933  0.2692636482610471  1.0000
  C   C17       1.0  0.9502582041936368  0.8170016577354473  0.4200034857648376  1.0000
  C   C18       1.0  0.9558660824178553  0.9309618521565258  0.4944239354386135  1.0000
  C   C19       1.0  0.9203357798387903  0.9610439691834981  0.0338356815927987  1.0000
  O   O1        1.0  0.941335125757602  0.06423999056094278  0.9622785275769421  1.0000
  N   N3        1.0  0.8844044495737243  0.8578994673372224  0.9590445490847047  1.0000
  H   H7        1.0  0.9725319798063738  0.24563779254156293  0.7047494096334106  1.0000
  H   H8        1.0  0.9342744945911677  0.15715826262140742  0.21116680376930463  1.0000
  H   H9        1.0  0.9361864279736903  0.7396280442770169  0.21142857860630437  1.0000
  H   H10       1.0  0.9647600435549805  0.9237718050895336  0.6105660961582267  1.0000
  H   H11       1.0  0.9734096168718661  0.5904338610703425  0.7046224131887346  1.0000
  H   H12       1.0  0.8799155529476862  0.8661864237290534  0.846380923497978  1.0000
  H   H13       1.0  0.8574093883480348  0.7774256681503853  0.014147237536173973  1.0000
  C   C20       1.0  0.9485689054583795  0.432996076023624  0.9967175991764692  1.0000
  C   C21       1.0  0.8968368385203104  0.5166801186729992  0.062325597585721544  1.0000
  C   C22       1.0  0.8513982310480713  0.6080996680639237  0.9791518991250912  1.0000
  C   C23       1.0  0.8566150273822727  0.614557128971736  0.8284207974319572  1.0000
  C   C24       1.0  0.9065916526477319  0.5308874141283191  0.7613864447593759  1.0000
  C   C25       1.0  0.9521175864004056  0.43814719347083386  0.8432959782257745  1.0000
  C   C26       1.0  0.7954208661028223  0.6955767235947603  0.051112272001861525  1.0000
  C   C27       1.0  0.7134591929770717  0.6300812573421888  0.07104669206360792  1.0000
  N   N4        1.0  0.6593653855993575  0.7165211020260795  0.13869084768393947  1.0000
  H   H14       1.0  0.0070501910050786406  0.2414591892250768  0.2939349082727509  1.0000
  H   H15       1.0  0.8930452545925673  0.5129723345273376  0.17911367518216892  1.0000
  H   H16       1.0  0.8212468774480493  0.6836449769031616  0.7624689321612479  1.0000
  H   H17       1.0  0.9080298379347476  0.5365016306120893  0.6443815099494774  1.0000
  H   H18       1.0  0.061480458125145576  0.3218885104800664  0.5739551969457293  1.0000
  H   H19       1.0  0.8203840295532252  0.7190186966141451  0.1580863327167148  1.0000
  H   H20       1.0  0.7890171722315735  0.7891958306327275  0.9847355206728365  1.0000
  H   H21       1.0  0.6885377583379757  0.607683963131462  0.963655904958769  1.0000
  H   H22       1.0  0.7191079494278175  0.5371907465071133  0.13929875440043404  1.0000
  H   H23       1.0  0.6030629090651346  0.6715070334189289  0.14250776104809004  1.0000
  H   H24       1.0  0.6780333498358951  0.7234849490707788  0.24600509461694142  1.0000
  Zn  Zn1       1.0  0.8629834457872083  0.4334087796432613  0.4190993506110378  1.0000
  Zn  Zn2       1.0  0.03769538541683116  0.43773366232808986  0.4209134933344514  1.0000
  C   C28       1.0  0.9514461633179234  0.4319988946071367  0.6832745695578475  1.0000
  C   C29       1.0  0.949234575962884  0.4391452343562532  0.15673843566166878  1.0000
  C   C30       1.0  0.9502621862311266  0.6727698167522729  0.4142606962604849  1.0000
  C   C31       1.0  0.9504184941026074  0.1983727506298985  0.4257523852026883  1.0000
  O   O2        1.0  0.01576025289848681  0.4428445517820161  0.21113134795190946  1.0000
  O   O3        1.0  0.017522804481138406  0.4315810806511122  0.6302581346872407  1.0000
  O   O4        1.0  0.016565840506474583  0.6260066322418224  0.41302751938943455  1.0000
  O   O5        1.0  0.016717156800691413  0.24841900734973454  0.4283618545524477  1.0000
  O   O6        1.0  0.8839616147827053  0.6227234331471141  0.4116509887663813  1.0000
  O   O7        1.0  0.8849185780837997  0.4282994416631205  0.6288815271938706  1.0000
  O   O8        1.0  0.8831560192998055  0.43956285698669384  0.20975300742877587  1.0000
  O   O9        1.0  0.8841129236538263  0.24513730392148148  0.42698362209992213  1.0000
