data_image0
_chemical_formula_structural       NC5NC3F3CH3C6BrH5C7NH4Zn2C4O8
_chemical_formula_sum              "N3 C26 F3 H12 Br1 Zn2 O8"
_cell_length_a       13.85151926108384
_cell_length_b       9.276564384272257
_cell_length_c       9.275157849593905
_cell_angle_alpha    86.064957766791
_cell_angle_beta     89.74088631582597
_cell_angle_gamma    90.58593481197379

_space_group_name_H-M_alt    "P 1"
_space_group_IT_number       1

loop_
  _space_group_symop_operation_xyz
  'x, y, z'

loop_
  _atom_site_type_symbol
  _atom_site_label
  _atom_site_symmetry_multiplicity
  _atom_site_fract_x
  _atom_site_fract_y
  _atom_site_fract_z
  _atom_site_occupancy
  N   N1        1.0  0.9246036884293967  0.5629053772601711  0.4090520863903777  1.0000
  C   C1        1.0  0.8520269830380329  0.5544273543458511  0.4715068025130254  1.0000
  C   C2        1.0  0.7617358375827588  0.5438795347660552  0.5492094039175458  1.0000
  C   C3        1.0  0.6744966083415997  0.5523733157566129  0.47370057432222934  1.0000
  C   C4        1.0  0.5866838480482244  0.54387952142787  0.5492093838764323  1.0000
  C   C5        1.0  0.4970077307508273  0.5544273714005781  0.4715068965373781  1.0000
  N   N2        1.0  0.4249255022442779  0.5629053403884956  0.40905219184221486  1.0000
  C   C6        1.0  0.5860936959832759  0.5258957147311204  0.7004038562669684  1.0000
  C   C7        1.0  0.6733164087842868  0.5142244256232225  0.777177091670082  1.0000
  C   C8        1.0  0.672726966830155  0.5002177040627287  0.9401602469331686  1.0000
  F   F1        1.0  0.75299601349578  0.42590324235764915  0.9918090443341697  1.0000
  F   F2        1.0  0.5911271983313764  0.4259032127156781  0.9918091436256349  1.0000
  F   F3        1.0  0.6735042515827945  0.6365237621541511  0.9917488910482215  1.0000
  C   C9        1.0  0.7611640221135302  0.5258956196709041  0.7004038759581144  1.0000
  H   H1        1.0  0.6749475381905317  0.5664572097685576  0.35664031609688784  1.0000
  H   H2        1.0  0.5177642481691905  0.5212730643285677  0.758042256499585  1.0000
  H   H3        1.0  0.8290810012557088  0.5212729830380283  0.7580422155397584  1.0000
  C   C10       1.0  0.17185946667049534  0.1394279585505136  0.4094206344413869  1.0000
  C   C11       1.0  0.15987763119214837  0.22165856641472637  0.277705855599794  1.0000
  C   C12       1.0  0.1568768087709811  0.15541286668373888  0.14722135949516907  1.0000
  C   C13       1.0  0.1658437079584021  0.005993691529768472  0.14597401082330208  1.0000
  C   C14       1.0  0.17613068985940372  0.92205057002653  0.27569703964169157  1.0000
  C   C15       1.0  0.17767884178696133  0.9863717814821836  0.4086960178192424  1.0000
  Br  Br1       1.0  0.16244990326991093  0.9159113259566084  0.9669264839138481  1.0000
  H   H4        1.0  0.14285606175811716  0.4042370742664654  0.6437133651881333  1.0000
  H   H5        1.0  0.15512068899865872  0.33829119525176043  0.2752386894876375  1.0000
  H   H6        1.0  0.1484986279983016  0.22066620937001225  0.04683856354230077  1.0000
  H   H7        1.0  0.1806067280905621  0.8057806604553892  0.27258999883361934  1.0000
  H   H8        1.0  0.2302709484018195  0.6906010389031522  0.6331470916310548  1.0000
  C   C16       1.0  0.1760221574353975  0.5588236539175999  0.985864067500693  1.0000
  C   C17       1.0  0.2595557891348237  0.6058352556750877  0.05551989024347481  1.0000
  C   C18       1.0  0.3382150398269879  0.6641864292431763  0.9755918139618275  1.0000
  C   C19       1.0  0.33425935024329845  0.6764536641106047  0.8249223716609878  1.0000
  C   C20       1.0  0.25270253146452304  0.6282743114374958  0.753926006308069  1.0000
  C   C21       1.0  0.17351617303701916  0.5669760772752389  0.8322526632971009  1.0000
  C   C22       1.0  0.4227086852236744  0.7132063160608735  0.04855351084480608  1.0000
  N   N3        1.0  0.4906199367225099  0.7526050872503018  0.10720241097390806  1.0000
  H   H9        1.0  0.9407927000460452  0.5102011232384858  0.09374324679375379  1.0000
  H   H10       1.0  0.39468895990649755  0.7220687989334913  0.7620605578234552  1.0000
  H   H11       1.0  0.25254105346029077  0.6358559700198771  0.6368550803464768  1.0000
  H   H12       1.0  0.01610760930189348  0.5281843969310815  0.5548793300722461  1.0000
  Zn  Zn1       1.0  0.06898570548198446  0.5629015968180522  0.40906042659975644  1.0000
  Zn  Zn2       1.0  0.28054335212612513  0.5628974716214166  0.4090556118733557  1.0000
  C   C23       1.0  0.17394820761583946  0.559690198483057  0.6722719852401322  1.0000
  C   C24       1.0  0.17558317227854198  0.5661106908202742  0.1458441930696748  1.0000
  C   C25       1.0  0.1765908864890795  0.8262260791142151  0.4030902834040762  1.0000
  C   C26       1.0  0.17294040908336528  0.2995730783483952  0.41502597322176055  1.0000
  O   O1        1.0  0.25572082598142787  0.5685484301622239  0.19953316286582634  1.0000
  O   O2        1.0  0.25437790635844526  0.5572482363186855  0.6185789472623988  1.0000
  O   O3        1.0  0.2565108162525529  0.7724793451891567  0.4012128172664178  1.0000
  O   O4        1.0  0.25358784428783676  0.3533173305683748  0.41689918480071386  1.0000
  O   O5        1.0  0.09594114112606378  0.7724817378739992  0.40121685366646  1.0000
  O   O6        1.0  0.09380824335968474  0.5572523608471536  0.6185829053404724  1.0000
  O   O7        1.0  0.09515116783164196  0.5685524877489203  0.1995353883447748  1.0000
  O   O8        1.0  0.09301818574332542  0.35332137888135384  0.41690151833481703  1.0000
