data_image0
_chemical_formula_structural       NC5OC5NC4H8C6NH7C7OH5Zn2C4O8
_chemical_formula_sum              "N3 C31 O10 H20 Zn2"
_cell_length_a       19.189071930511275
_cell_length_b       9.274771166103582
_cell_length_c       9.274074313596556
_cell_angle_alpha    86.0140142098405
_cell_angle_beta     90.21172444201244
_cell_angle_gamma    90.58817672672019

_space_group_name_H-M_alt    "P 1"
_space_group_IT_number       1

loop_
  _space_group_symop_operation_xyz
  'x, y, z'

loop_
  _atom_site_type_symbol
  _atom_site_label
  _atom_site_symmetry_multiplicity
  _atom_site_fract_x
  _atom_site_fract_y
  _atom_site_fract_z
  _atom_site_occupancy
  N   N1        1.0  0.6609475414327248  0.5628502949668945  0.4068401843952303  1.0000
  C   C1        1.0  0.6067074050286937  0.6138746779346707  0.3864467572086845  1.0000
  C   C2        1.0  0.5392396609089973  0.6773405044324323  0.36108039992836494  1.0000
  C   C3        1.0  0.5298583175421375  0.7838897084121303  0.24833217803446742  1.0000
  C   C4        1.0  0.46432137577058913  0.8456211392269419  0.2238312571294523  1.0000
  C   C5        1.0  0.40750338511111  0.800673604829512  0.310574702670402  1.0000
  O   O1        1.0  0.34281068590759484  0.8664139889245837  0.2835528425788021  1.0000
  C   C6        1.0  0.2775600238498035  0.8004569216301305  0.3099489401682607  1.0000
  C   C7        1.0  0.22129907143927105  0.8869651688096508  0.3433726612219874  1.0000
  C   C8        1.0  0.1552404177233175  0.8255600793268649  0.3688170539949811  1.0000
  C   C9        1.0  0.1447773572501495  0.6768324458827115  0.35961180422975425  1.0000
  C   C10       1.0  0.0767726575553256  0.6135947503727086  0.38563749816628  1.0000
  N   N2        1.0  0.022100879208814508  0.5627538450395384  0.40656148627579003  1.0000
  C   C11       1.0  0.2005590484791453  0.5899609086376663  0.3240608226747157  1.0000
  C   C12       1.0  0.2666091605339072  0.6514102805520119  0.2986647755021523  1.0000
  C   C13       1.0  0.4173755691101202  0.6951445913897274  0.42511714167210224  1.0000
  C   C14       1.0  0.48290371241276736  0.6334092702623575  0.4496861873578777  1.0000
  H   H1        1.0  0.5731498204833213  0.8193271522414058  0.1795800636669489  1.0000
  H   H2        1.0  0.4575298779329282  0.9281117347556003  0.13659425963287375  1.0000
  H   H3        1.0  0.22892786316697633  0.0020781974603223392  0.35045979298661645  1.0000
  H   H4        1.0  0.11238890210378441  0.8939841385026981  0.39544212601662165  1.0000
  H   H5        1.0  0.1929210629204631  0.47500083660961767  0.31522563130461245  1.0000
  H   H6        1.0  0.30874508395794714  0.5831808448010833  0.2682507757835395  1.0000
  H   H7        1.0  0.374810692002955  0.662152262206148  0.4965873798895864  1.0000
  H   H8        1.0  0.4897100628625871  0.5520944046487701  0.5381323603621613  1.0000
  C   C15       1.0  0.8393896601719328  0.13921381932046772  0.4074880523055331  1.0000
  C   C16       1.0  0.8230932361551406  0.22126177404506797  0.2786152087449185  1.0000
  C   C17       1.0  0.8133016225994718  0.15494182838926895  0.1489196230481784  1.0000
  C   C18       1.0  0.8198410685052997  0.005187224043288419  0.14715740220571583  1.0000
  C   C19       1.0  0.8348452731976103  0.9218028067618729  0.274260734178849  1.0000
  C   C20       1.0  0.8436654301527546  0.9863794169764848  0.4059261107841654  1.0000
  N   N3        1.0  0.7974304920174217  0.24007526286409875  0.01862992582277734  1.0000
  H   H9        1.0  0.9184545581448291  0.2219492327888586  0.722849309747887  1.0000
  H   H10       1.0  0.8195783845142812  0.337849985974223  0.27806429536601107  1.0000
  H   H11       1.0  0.8126372378525135  0.9527223456119199  0.047369479491570006  1.0000
  H   H12       1.0  0.8379080650964423  0.8055974562860077  0.2701306907324903  1.0000
  H   H13       1.0  0.8940986654379848  0.6914061565100761  0.6204860172482032  1.0000
  H   H14       1.0  0.7926290106430981  0.352149986318816  0.018586819694569986  1.0000
  H   H15       1.0  0.7902970563602637  0.19165083953262085  0.9212121627202915  1.0000
  C   C21       1.0  0.8406721723664694  0.5586423481468996  0.9834741928833504  1.0000
  C   C22       1.0  0.7801258044521894  0.6012440849309704  0.05333141921426665  1.0000
  C   C23       1.0  0.7230695806693871  0.6554373574332604  0.9740935388648353  1.0000
  C   C24       1.0  0.7252259510290991  0.6684703114759498  0.8227878931078059  1.0000
  C   C25       1.0  0.7848226090921606  0.6241273485985842  0.7517947178493753  1.0000
  C   C26       1.0  0.842382883482233  0.5669508059189519  0.8299399913482879  1.0000
  C   C27       1.0  0.6655750416363885  0.7266310193547194  0.7373362413752709  1.0000
  O   O2        1.0  0.6111687911102868  0.7668359878612665  0.7980105602517895  1.0000
  H   H16       1.0  0.010759140369315693  0.5218465969692618  0.09019911792063673  1.0000
  H   H17       1.0  0.6775121304257349  0.6884706204177324  0.03146959522693371  1.0000
  H   H18       1.0  0.7856653985431926  0.6311174760679044  0.6346245431488478  1.0000
  H   H19       1.0  0.956686544062731  0.5369398546152377  0.5524411153236044  1.0000
  H   H20       1.0  0.668093810230526  0.7353859023533311  0.6204486711621051  1.0000
  Zn  Zn1       1.0  0.7651685995396468  0.5628186951521237  0.40676808191867786  1.0000
  Zn  Zn2       1.0  0.9178798029625782  0.5627738045388979  0.40664539441066183  1.0000
  C   C28       1.0  0.8420289831512326  0.5596339354184887  0.6699503844315282  1.0000
  C   C29       1.0  0.8410210964243798  0.5659603851936268  0.1434632286611861  1.0000
  C   C30       1.0  0.8428420157465432  0.8261906827608474  0.4004780638292076  1.0000
  C   C31       1.0  0.8402080031278377  0.29940190558507673  0.4129356293398312  1.0000
  O   O3        1.0  0.8990912726020958  0.5683930565570587  0.19711046291895395  1.0000
  O   O4        1.0  0.8998630705441035  0.5571661008634254  0.6162096203161369  1.0000
  O   O5        1.0  0.9005188264401821  0.7724140603518945  0.3986088127306764  1.0000
  O   O6        1.0  0.8984354644297075  0.3531451063419009  0.41471116246349027  1.0000
  O   O7        1.0  0.7846128859596712  0.7724473933659359  0.3987023139001329  1.0000
  O   O8        1.0  0.7839571386519779  0.5572011661604734  0.6163030414435531  1.0000
  O   O9        1.0  0.7831853370005732  0.5684280545797351  0.19720215133889818  1.0000
  O   O10       1.0  0.7825295289916481  0.35318009510808057  0.4148029589586424  1.0000
