data_image0
_chemical_formula_structural       NC9NC3SH6C9H10C8NH7Zn2C4O8
_chemical_formula_sum              "N3 C33 S1 H23 Zn2 O8"
_cell_length_a       16.77567553997237
_cell_length_b       9.272676604525723
_cell_length_c       9.274266800404106
_cell_angle_alpha    86.24029602187467
_cell_angle_beta     89.94189520236782
_cell_angle_gamma    91.44448428757873

_space_group_name_H-M_alt    "P 1"
_space_group_IT_number       1

loop_
  _space_group_symop_operation_xyz
  'x, y, z'

loop_
  _atom_site_type_symbol
  _atom_site_label
  _atom_site_symmetry_multiplicity
  _atom_site_fract_x
  _atom_site_fract_y
  _atom_site_fract_z
  _atom_site_occupancy
  N   N1        1.0  0.7659912539668331  0.5875425183010491  0.42486707095278764  1.0000
  C   C1        1.0  0.7113369798185907  0.6426705053125201  0.4712916914067837  1.0000
  C   C2        1.0  0.6435102220330567  0.711080688805362  0.5289010960196205  1.0000
  C   C3        1.0  0.6457155989907539  0.8096989290449654  0.6348555553361972  1.0000
  C   C4        1.0  0.5701862883245837  0.8582416366950298  0.6700531943512109  1.0000
  C   C5        1.0  0.5081977186381293  0.7976350879473377  0.5913988259867959  1.0000
  C   C6        1.0  0.4218098994375317  0.8266732485654072  0.6035753060992675  1.0000
  C   C7        1.0  0.3647984357452884  0.7377991580502374  0.538475072911925  1.0000
  C   C8        1.0  0.2832534239571777  0.7645957052919499  0.5494685521038914  1.0000
  C   C9        1.0  0.22556530780050604  0.6727462588753426  0.48280601415519064  1.0000
  N   N2        1.0  0.17920111377570894  0.5989124684596663  0.429219181192664  1.0000
  C   C10       1.0  0.2578926702852447  0.8806132544866533  0.6253850107273842  1.0000
  C   C11       1.0  0.3138156135294803  0.9696599289612926  0.6899736775559207  1.0000
  C   C12       1.0  0.3952037235225575  0.9432692489720435  0.6793090337544796  1.0000
  S   S1        1.0  0.5486577151729679  0.6834197096970814  0.47865128746711866  1.0000
  H   H1        1.0  0.7000900478408378  0.8454618946536046  0.6858192752293945  1.0000
  H   H2        1.0  0.561974638796342  0.9342600057880047  0.751962782536056  1.0000
  H   H3        1.0  0.3833630878778378  0.6470734995435792  0.4798462638150946  1.0000
  H   H4        1.0  0.1949853546725112  0.9022919377915071  0.6344611078685058  1.0000
  H   H5        1.0  0.2940681953506453  0.059703776392581176  0.7482469952497411  1.0000
  H   H6        1.0  0.436814501004773  0.015430952983781936  0.7293181432631917  1.0000
  C   C13       1.0  0.9703487590082314  0.1696633165096746  0.42517797144409486  1.0000
  C   C14       1.0  0.9379161468455199  0.23377374486187597  0.544222509201725  1.0000
  C   C15       1.0  0.9127633227409986  0.14987514331534693  0.666866817840843  1.0000
  C   C16       1.0  0.9192306972615147  0.99936180022966  0.6745938518051409  1.0000
  C   C17       1.0  0.9503617622959031  0.9337574839899572  0.5544249709680045  1.0000
  C   C18       1.0  0.9748511525273701  0.016780885217679183  0.42892082999520886  1.0000
  C   C19       1.0  0.8911597495435597  0.9160218534656354  0.8127735511858237  1.0000
  C   C20       1.0  0.8509244740472283  0.7687116110170659  0.7979970087449372  1.0000
  C   C21       1.0  0.9348525828324812  0.7789263107311409  0.8598757028260833  1.0000
  H   H7        1.0  0.9890762867533173  0.46721552341962264  0.18915553079204428  1.0000
  H   H8        1.0  0.9337096382317469  0.35017947509166647  0.5440396272543855  1.0000
  H   H9        1.0  0.8887512272242933  0.20334688038071413  0.7571884248740999  1.0000
  H   H10       1.0  0.9541597208675602  0.817471788159839  0.5558035798596823  1.0000
  H   H11       1.0  0.9970669537554795  0.9379033803276331  0.0761877994508957  1.0000
  H   H12       1.0  0.8681965282407382  0.9762003357168968  0.9032939062536638  1.0000
  H   H13       1.0  0.8476995490010452  0.728540298038869  0.6880686642956445  1.0000
  H   H14       1.0  0.8043555713032734  0.7392778151921205  0.8806697387918406  1.0000
  H   H15       1.0  0.9825848435177221  0.7448313698904188  0.7876202165476114  1.0000
  H   H16       1.0  0.9373334881808073  0.7554565452136078  0.9787325732770228  1.0000
  C   C22       1.0  0.974416981424655  0.5901189001223208  0.0037440468601757063  1.0000
  C   C23       1.0  0.9275347777094587  0.4855894075069338  0.083949308071958  1.0000
  C   C24       1.0  0.8758874851692031  0.3921448426347915  0.015106812813075132  1.0000
  C   C25       1.0  0.8694096773525951  0.401768735332438  0.8643834890064044  1.0000
  C   C26       1.0  0.9173681241396027  0.5028800000975229  0.7828682693383802  1.0000
  C   C27       1.0  0.9707828798432976  0.5963253117791562  0.850354700210592  1.0000
  C   C28       1.0  0.8145673442274505  0.29953207879640326  0.7902845891649881  1.0000
  C   C29       1.0  0.85704219963672  0.16885450722147022  0.7589416257229615  1.0000
  N   N3        1.0  0.8905705195981677  0.06571989675317313  0.7342020408082437  1.0000
  H   H17       1.0  0.06393582098174577  0.9099832684023916  0.08550700597147953  1.0000
  H   H18       1.0  0.9295307048402587  0.4781752863409196  0.20095176598716025  1.0000
  H   H19       1.0  0.8402856257315984  0.3129820132303187  0.07963469774212761  1.0000
  H   H20       1.0  0.9142805770395717  0.5060856107481333  0.6659591104712067  1.0000
  H   H21       1.0  0.03393516666043106  0.8089580882770717  0.5555999992458713  1.0000
  H   H22       1.0  0.7921057716321943  0.3517201587153473  0.6875093673149335  1.0000
  H   H23       1.0  0.7621170625325294  0.26845726987456087  0.8597644396576869  1.0000
  Zn  Zn1       1.0  0.885234640319675  0.5908198504201971  0.4261313120714689  1.0000
  Zn  Zn2       1.0  0.05995760910542258  0.5956234565908083  0.4279667259673534  1.0000
  C   C30       1.0  0.9714375016253893  0.5894060163195838  0.6903017815395909  1.0000
  C   C31       1.0  0.9737566648345153  0.5970391641035828  0.16379642606592348  1.0000
  C   C32       1.0  0.9740206355489659  0.8566154204672266  0.42246904431595067  1.0000
  C   C33       1.0  0.9711734617498797  0.3298280259426212  0.43162923185889296  1.0000
  O   O1        1.0  0.039841479187831645  0.6011783188102411  0.21820796882925883  1.0000
  O   O2        1.0  0.03796337376407121  0.5889115963855842  0.6372828556917451  1.0000
  O   O3        1.0  0.040048386798889  0.8046865559728762  0.4210060226593457  1.0000
  O   O4        1.0  0.03775640705068328  0.38540336710957424  0.43448469319867566  1.0000
  O   O5        1.0  0.907435782750081  0.801039938263711  0.4196133442062344  1.0000
  O   O6        1.0  0.9053507792519888  0.5852667110520173  0.6358901080353924  1.0000
  O   O7        1.0  0.9072288919009555  0.5975333705098023  0.21681348785455623  1.0000
  O   O8        1.0  0.9051438192418044  0.38175840928478944  0.4330903202530438  1.0000
