data_image0
_chemical_formula_structural       NC5NC3BrH3C6BrH5C6SCH8Zn2C4O8
_chemical_formula_sum              "N2 C25 Br2 H16 S1 Zn2 O8"
_cell_length_a       13.839083392302014
_cell_length_b       9.276564384272257
_cell_length_c       10.302812801239593
_cell_angle_alpha    85.51203806162957
_cell_angle_beta     90.00087154347639
_cell_angle_gamma    90.61189963838827

_space_group_name_H-M_alt    "P 1"
_space_group_IT_number       1

loop_
  _space_group_symop_operation_xyz
  'x, y, z'

loop_
  _atom_site_type_symbol
  _atom_site_label
  _atom_site_symmetry_multiplicity
  _atom_site_fract_x
  _atom_site_fract_y
  _atom_site_fract_z
  _atom_site_occupancy
  N   N1        1.0  0.920724270261508  0.5788539458119355  0.5667199602262736  1.0000
  C   C1        1.0  0.8482852994349788  0.5152066940353706  0.5689880015748054  1.0000
  C   C2        1.0  0.7580329368061287  0.43600750683876816  0.571810087142468  1.0000
  C   C3        1.0  0.6709989334045922  0.5122143208683216  0.5690948030009816  1.0000
  C   C4        1.0  0.5824398654523771  0.4374803613478186  0.5717575546253355  1.0000
  C   C5        1.0  0.4932195637453388  0.516038781688673  0.5689583367859725  1.0000
  N   N2        1.0  0.4214980464518108  0.5791935929470724  0.5667078076117309  1.0000
  C   C6        1.0  0.5808468320405207  0.2862280570715796  0.5771467336030897  1.0000
  C   C7        1.0  0.6674349580698342  0.2098999645125743  0.5798662566957438  1.0000
  C   C8        1.0  0.7561851572357675  0.28391973573109186  0.5772289700513558  1.0000
  Br  Br1       1.0  0.8728331717335956  0.1738195131922864  0.5811519641519136  1.0000
  H   H1        1.0  0.6721783090119889  0.6294220556509675  0.5649184657878805  1.0000
  H   H2        1.0  0.512748790073439  0.2273701825652399  0.5792436216802739  1.0000
  H   H3        1.0  0.6654940942342368  0.09294145846668744  0.5840333739119365  1.0000
  C   C9        1.0  0.1682045019301901  0.15554081967687636  0.567045960240709  1.0000
  C   C10       1.0  0.15582151446823045  0.239031715847688  0.4483866795482444  1.0000
  C   C11       1.0  0.15243129902331387  0.17404055319628012  0.3308355207417106  1.0000
  C   C12       1.0  0.16140260212342186  0.024639476984408264  0.32971158757092733  1.0000
  C   C13       1.0  0.17208330252337323  0.939454097358024  0.44657657627783176  1.0000
  C   C14       1.0  0.1740269866903854  0.0024955710108303113  0.5663930239724111  1.0000
  Br  Br2       1.0  0.1574751360677167  0.9362790468383385  0.1684108415278993  1.0000
  H   H4        1.0  0.13986920752266685  0.4180739932838294  0.7781169461075779  1.0000
  H   H5        1.0  0.151052963754017  0.35568487455429443  0.4461641679441841  1.0000
  H   H6        1.0  0.14374807193323913  0.24025490140445968  0.24040259527906446  1.0000
  H   H7        1.0  0.1765541767230019  0.8232171472058621  0.4437773878529709  1.0000
  H   H8        1.0  0.22733174892259567  0.7045990506284483  0.7685958447082762  1.0000
  C   C15       1.0  0.17111577115992277  0.5790182177438121  0.18547105356378935  1.0000
  C   C16       1.0  0.13951706858632984  0.7228080958367515  0.17416370215001953  1.0000
  C   C17       1.0  0.12354397436266584  0.7941405304532481  0.05156210584267917  1.0000
  C   C18       1.0  0.13951698043313557  0.7228079443960456  0.9390125325795786  1.0000
  C   C19       1.0  0.1711157084167576  0.5790182079829069  0.9479679572023385  1.0000
  C   C20       1.0  0.18673079212581456  0.5078133199897534  0.07173661552421007  1.0000
  S   S1        1.0  0.08337114613907759  0.9779602718519959  0.038610059824943685  1.0000
  C   C21       1.0  0.9559218116136797  0.9274892218450195  0.04216411539693565  1.0000
  H   H9        1.0  0.18298776133626116  0.5248122707693725  0.5170466268137754  1.0000
  H   H10       1.0  0.12696474729496332  0.7799218448605012  0.2602390326039694  1.0000
  H   H11       1.0  0.12696455240841997  0.7799216369938822  0.8448887197866972  1.0000
  H   H12       1.0  0.21108668406451425  0.39689224158068304  0.07955206575009743  1.0000
  H   H13       1.0  0.1829859569964707  0.5248115208541675  0.6240310419204569  1.0000
  H   H14       1.0  0.9383462766216444  0.8633238636297587  0.9585676626741015  1.0000
  H   H15       1.0  0.9383467004927196  0.8633253213245463  0.13480235357408654  1.0000
  H   H16       1.0  0.9118845088573396  0.026996708445947697  0.035151963065084946  1.0000
  Zn  Zn1       1.0  0.06523674113213263  0.5789480941903219  0.5667239593073079  1.0000
  Zn  Zn2       1.0  0.2769854864633201  0.5790876245353254  0.566714472180404  1.0000
  C   C22       1.0  0.17107407240325911  0.5732732020656597  0.8038441574846005  1.0000
  C   C23       1.0  0.17115047999072552  0.5847643377536247  0.32959439992304995  1.0000
  C   C24       1.0  0.1729214363517908  0.8424031137021034  0.5613429410119206  1.0000
  C   C25       1.0  0.16930303187616813  0.31563269346503176  0.5720956869513427  1.0000
  O   O1        1.0  0.25151963065583294  0.5867394477580898  0.3779599160788862  1.0000
  O   O2        1.0  0.2514173124331347  0.5714029044527078  0.7554710679296446  1.0000
  O   O3        1.0  0.25290799892643046  0.7887287109975747  0.5596496187842501  1.0000
  O   O4        1.0  0.2500288719779611  0.36941365148174105  0.5737812678756535  1.0000
  O   O5        1.0  0.09219328335804766  0.7886220671978623  0.559657163608466  1.0000
  O   O6        1.0  0.09070260877133407  0.5712979932590988  0.755478542194655  1.0000
  O   O7        1.0  0.09080492671294382  0.5866344863110415  0.3779658294751118  1.0000
  O   O8        1.0  0.08931416796020475  0.3693086797201297  0.573787278616914  1.0000
