data_image0
_chemical_formula_structural       NC9NC3OH6C8NH7C7NC2NH7Zn2C4O8
_chemical_formula_sum              "N5 C33 O9 H20 Zn2"
_cell_length_a       15.78231758774541
_cell_length_b       9.27426342843186
_cell_length_c       9.27399911348925
_cell_angle_alpha    85.02669958396683
_cell_angle_beta     89.74395178918073
_cell_angle_gamma    90.24871893605766

_space_group_name_H-M_alt    "P 1"
_space_group_IT_number       1

loop_
  _space_group_symop_operation_xyz
  'x, y, z'

loop_
  _atom_site_type_symbol
  _atom_site_label
  _atom_site_symmetry_multiplicity
  _atom_site_fract_x
  _atom_site_fract_y
  _atom_site_fract_z
  _atom_site_occupancy
  N   N1        1.0  0.8133724634941505  0.5833889758491773  0.40954393591212623  1.0000
  C   C1        1.0  0.7641703768615276  0.49201552493814843  0.43636842899519174  1.0000
  C   C2        1.0  0.7030843541749355  0.37859885865651877  0.46966453458376733  1.0000
  C   C3        1.0  0.721702508969338  0.23613001423738522  0.5114015539098455  1.0000
  C   C4        1.0  0.6444654656698491  0.16708331674557808  0.531711802440556  1.0000
  C   C5        1.0  0.5834576517160439  0.27252616923268924  0.5008675096995145  1.0000
  C   C6        1.0  0.49022342676888014  0.2530305130504007  0.5066721357715802  1.0000
  C   C7        1.0  0.43735507761518916  0.3725647930446976  0.47152284969753366  1.0000
  C   C8        1.0  0.34903110771247076  0.3565787533682625  0.476290462218701  1.0000
  C   C9        1.0  0.295491802869542  0.4795910247138268  0.44010932446166007  1.0000
  N   N2        1.0  0.2524589851454392  0.5784770325417559  0.41102292675039853  1.0000
  C   C10       1.0  0.31289288690001565  0.2208805041105877  0.5162619338116883  1.0000
  C   C11       1.0  0.3648320992649051  0.10159331589310107  0.5513433921426765  1.0000
  C   C12       1.0  0.4529671843955108  0.11714020567375805  0.5467053400180433  1.0000
  O   O1        1.0  0.6208323684042474  0.3974905947831266  0.46420469876320336  1.0000
  H   H1        1.0  0.7838108936608399  0.1880848989131201  0.5254202604634928  1.0000
  H   H2        1.0  0.634900979659852  0.053553468838110525  0.5649878586185346  1.0000
  H   H3        1.0  0.46473527729621394  0.4781621377418775  0.4404127097579081  1.0000
  H   H4        1.0  0.24467710134886217  0.20734117969672528  0.5202974948536239  1.0000
  H   H5        1.0  0.33672687869763  0.996717885364822  0.5822413177985883  1.0000
  H   H6        1.0  0.4913605578824117  0.022656272501761828  0.5745014943990936  1.0000
  C   C13       1.0  0.03023759303877216  0.15737685253246214  0.4105811297634816  1.0000
  C   C14       1.0  0.019750709416348707  0.24200387566511677  0.27863532494214094  1.0000
  C   C15       1.0  0.017569617167007872  0.17825652350144128  0.1479115789954908  1.0000
  C   C16       1.0  0.02651018241610135  0.028392455453208003  0.145902534430433  1.0000
  C   C17       1.0  0.03472638256494706  0.9422939441780844  0.27695591940480235  1.0000
  C   C18       1.0  0.03560183123707006  0.004477922786740861  0.4099982510600917  1.0000
  C   C19       1.0  0.022894221944995456  0.959672815329974  0.005062148968645322  1.0000
  C   C20       1.0  0.935099930678997  0.9219982555347548  0.9726877618442386  1.0000
  N   N3        1.0  0.8658057350826243  0.8922611000153099  0.9471448929987489  1.0000
  H   H7        1.0  0.1021821300533245  0.23193772083902342  0.7435919893000238  1.0000
  H   H8        1.0  0.015075417352699887  0.35869568534672536  0.2762556068815527  1.0000
  H   H9        1.0  0.009699177335126707  0.24614447139939252  0.04785871936195151  1.0000
  H   H10       1.0  0.03839137721039893  0.825779956334907  0.27506704175916874  1.0000
  H   H11       1.0  0.08073550552935164  0.7045078611954825  0.6361492257893638  1.0000
  H   H12       1.0  0.06201876960783956  0.8600711636368836  0.010779606255917559  1.0000
  H   H13       1.0  0.04823118771607904  0.034985430472149075  0.9153251324590337  1.0000
  C   C21       1.0  0.0344063508094061  0.5846024358338886  0.9864406813909082  1.0000
  C   C22       1.0  0.10047700824414219  0.5147929679456438  0.06519675230459088  1.0000
  C   C23       1.0  0.1608743023066761  0.4347778340399873  0.9968043047097196  1.0000
  C   C24       1.0  0.1568203871175734  0.42181472375341955  0.8475034834117201  1.0000
  C   C25       1.0  0.0920402761095307  0.49404569590424363  0.7671913874041638  1.0000
  C   C26       1.0  0.03143306714370775  0.5772522993862167  0.8341386354472493  1.0000
  C   C27       1.0  0.22129594095232996  0.3348243299089342  0.7770863034902531  1.0000
  N   N4        1.0  0.29192594641937175  0.2836345947870529  0.8453987776178362  1.0000
  C   C28       1.0  0.3324837145848343  0.21100662172549642  0.7462635896859537  1.0000
  C   C29       1.0  0.28624966165796994  0.2187126154680881  0.620560682446954  1.0000
  N   N5        1.0  0.21632009292890342  0.2965172789099093  0.6401035619650588  1.0000
  H   H14       1.0  0.9453714882634703  0.7676657168491152  0.25258880930228034  1.0000
  H   H15       1.0  0.10434214253997659  0.5190422213208445  0.18135787813036575  1.0000
  H   H16       1.0  0.21022395040525177  0.3810873437125464  0.06173595066393278  1.0000
  H   H17       1.0  0.08991979840491093  0.4901664854576076  0.65108201760534  1.0000
  H   H18       1.0  0.8997558136966602  0.6601368375858254  0.547875211689326  1.0000
  H   H19       1.0  0.392070588697486  0.1554400764746442  0.7648716851391559  1.0000
  H   H20       1.0  0.168527220902429  0.31891573074510204  0.5642216684190648  1.0000
  Zn  Zn1       1.0  0.9400832915987157  0.5819675701874771  0.4099790715231604  1.0000
  Zn  Zn2       1.0  0.12574801261837942  0.5798865639120856  0.4105995980940147  1.0000
  C   C30       1.0  0.03195680425881631  0.5728956580235807  0.6739095529753185  1.0000
  C   C31       1.0  0.03387653843871541  0.5889602720072897  0.14666926383044346  1.0000
  C   C32       1.0  0.03460368408720216  0.8444076724684622  0.404356770064775  1.0000
  C   C33       1.0  0.031229584012491204  0.31744652470157986  0.41622212467268693  1.0000
  O   O2        1.0  0.10415748274743425  0.5896267781127487  0.2006789307329951  1.0000
  O   O3        1.0  0.10259108178177895  0.570648631809189  0.6203704366426144  1.0000
  O   O4        1.0  0.10472751563530375  0.789898014844483  0.4027046531051899  1.0000
  O   O5        1.0  0.10202098598403816  0.3703774070438229  0.418344605830497  1.0000
  O   O6        1.0  0.9638102548748362  0.7914767277675208  0.4022340635673296  1.0000
  O   O7        1.0  0.9616738322609293  0.5722290783048367  0.6198997689537058  1.0000
  O   O8        1.0  0.9632402390512594  0.5912071893920441  0.20020652775620684  1.0000
  O   O9        1.0  0.9611037418395137  0.37195780706853143  0.4178723110742835  1.0000
