data_image0
_chemical_formula_structural       NC5NC3F3CH3C6ClH5C6NCOH5Zn2C4O8
_chemical_formula_sum              "N3 C26 F3 H13 Cl1 O9 Zn2"
_cell_length_a       13.85151926108384
_cell_length_b       10.30297070629231
_cell_length_c       9.27373355559583
_cell_angle_alpha    86.17407986501598
_cell_angle_beta     90.01106478647557
_cell_angle_gamma    89.9983157295073

_space_group_name_H-M_alt    "P 1"
_space_group_IT_number       1

loop_
  _space_group_symop_operation_xyz
  'x, y, z'

loop_
  _atom_site_type_symbol
  _atom_site_label
  _atom_site_symmetry_multiplicity
  _atom_site_fract_x
  _atom_site_fract_y
  _atom_site_fract_z
  _atom_site_occupancy
  N   N1        1.0  0.9088457586199626  0.4054692178562944  0.4102794107760668  1.0000
  C   C1        1.0  0.83652448471722  0.39789871388873993  0.4727311875023146  1.0000
  C   C2        1.0  0.7465511322056559  0.388479972344  0.550430131923213  1.0000
  C   C3        1.0  0.6590151446220873  0.3960516870468431  0.47492335341509734  1.0000
  C   C4        1.0  0.571499142699452  0.38847996031599363  0.5504301118693031  1.0000
  C   C5        1.0  0.4815052326097616  0.3978987293362108  0.4727312815477549  1.0000
  N   N2        1.0  0.40916757302105594  0.40546918476632543  0.4102795162036408  1.0000
  C   C6        1.0  0.571509908103525  0.37243980862953924  0.7016196419085035  1.0000
  C   C7        1.0  0.6590551956659465  0.36200870744383534  0.7783881948809277  1.0000
  C   C8        1.0  0.6590765784257141  0.34956075941835274  0.9413706249788789  1.0000
  F   F1        1.0  0.7400191201263097  0.2827083616396695  0.9929594065516195  1.0000
  F   F2        1.0  0.5781503054790107  0.2827083350523267  0.9929595058245815  1.0000
  F   F3        1.0  0.6590805664427748  0.47232549867020013  0.9930794569566609  1.0000
  C   C9        1.0  0.7465802349488553  0.3724397230684111  0.7016196615196759  1.0000
  H   H1        1.0  0.6589997221751106  0.4086147596440712  0.35786705878597247  1.0000
  H   H2        1.0  0.5033942043662522  0.3683354274778873  0.7592580687022963  1.0000
  H   H3        1.0  0.8147109578817656  0.36833535425302055  0.7592580276700878  1.0000
  C   C10       1.0  0.1590112643195405  0.024221825757403836  0.4102856551380351  1.0000
  C   C11       1.0  0.2587025086090904  0.021347094950804564  0.43804539673489584  1.0000
  C   C12       1.0  0.30816664321112897  0.90296388536857  0.45181893885261193  1.0000
  C   C13       1.0  0.2587025078295124  0.786239125625702  0.43804532895374315  1.0000
  C   C14       1.0  0.15901127463323106  0.7867067683675871  0.41028573764047493  1.0000
  C   C15       1.0  0.10965160228619736  0.9062917899900444  0.3965411514065302  1.0000
  Cl  Cl1       1.0  0.43270475935416564  0.9008761776503127  0.4864973706532132  1.0000
  H   H4        1.0  0.12145931851995843  0.35260779702795775  0.399828239784513  1.0000
  H   H5        1.0  0.2983521392289213  0.11072900795773322  0.44908599687611517  1.0000
  H   H6        1.0  0.29835210103702753  0.6955278141287053  0.4490858933291917  1.0000
  H   H7        1.0  0.03276668937862826  0.907580542071295  0.37513195983494274  1.0000
  H   H8        1.0  0.12145931384744428  0.45957983298204996  0.39982851189097324  1.0000
  C   C16       1.0  0.15895603748346274  0.401373875328209  0.9870586652727605  1.0000
  C   C17       1.0  0.07022486019882934  0.3939222666438429  0.0610101219995851  1.0000
  C   C18       1.0  0.9823716518048387  0.39699185087632677  0.9860606317312812  1.0000
  C   C19       1.0  0.9832238875930583  0.41173313983721543  0.8347128974225049  1.0000
  C   C20       1.0  0.07050342352792671  0.41724745968198507  0.7595574480023664  1.0000
  C   C21       1.0  0.15906651832813545  0.40955466469191587  0.8335126980674319  1.0000
  N   N3        1.0  0.8933543455483197  0.3924383623751342  0.06607511186499293  1.0000
  C   C22       1.0  0.8063766035955451  0.3326539821927703  0.019292681975623387  1.0000
  O   O1        1.0  0.8058689441235201  0.2639482806749598  0.9119418481464429  1.0000
  H   H9        1.0  0.3864535501007657  0.4915223422527142  0.08337212927326276  1.0000
  H   H10       1.0  0.916549817176102  0.4203771317811831  0.7740982808336336  1.0000
  H   H11       1.0  0.31305119368352186  0.4647838485491507  0.5484064705654934  1.0000
  H   H12       1.0  0.8930086025940442  0.4269583046240961  0.1694941111926444  1.0000
  H   H13       1.0  0.7403914714204383  0.3435420121134931  0.07971351884804379  1.0000
  Zn  Zn1       1.0  0.05322782797208326  0.40546582269451287  0.41028774832703274  1.0000
  Zn  Zn2       1.0  0.2647854877466569  0.40546210408138994  0.41028292973848934  1.0000
  C   C23       1.0  0.15904348263558066  0.4028363038146563  0.6735147422119212  1.0000
  C   C24       1.0  0.1589721433047555  0.4080932623854478  0.14705607725789482  1.0000
  C   C25       1.0  0.15900557044325941  0.6425253472501145  0.4045424942969841  1.0000
  C   C26       1.0  0.15900998331720118  0.1684026598882844  0.4160284020125016  1.0000
  O   O2        1.0  0.2392625779077221  0.4103412749331259  0.20075084168504764  1.0000
  O   O3        1.0  0.2393204166362919  0.40058448550549985  0.6198159057090864  1.0000
  O   O4        1.0  0.2392887199765359  0.5941364338639525  0.40261891251920096  1.0000
  O   O5        1.0  0.23929420236307508  0.21678933481880525  0.41794772681431214  1.0000
  O   O6        1.0  0.07871904116141805  0.5941385919597069  0.40262295124527336  1.0000
  O   O7        1.0  0.07875073780680242  0.4005882026655678  0.6198198675895532  1.0000
  O   O8        1.0  0.07869289891626652  0.41034493010471196  0.20075307078942406  1.0000
  O   O9        1.0  0.07872452338177505  0.21679298174886785  0.41795006397337353  1.0000
