data_image0
_chemical_formula_structural       NC5OC5NC4H8C7NH5C7OH5Zn2C4O8
_chemical_formula_sum              "N3 C32 O10 H18 Zn2"
_cell_length_a       19.189071930511275
_cell_length_b       9.275154477615127
_cell_length_c       9.274074313596557
_cell_angle_alpha    86.3499061385644
_cell_angle_beta     90.21172444201244
_cell_angle_gamma    89.42495848434854

_space_group_name_H-M_alt    "P 1"
_space_group_IT_number       1

loop_
  _space_group_symop_operation_xyz
  'x, y, z'

loop_
  _atom_site_type_symbol
  _atom_site_label
  _atom_site_symmetry_multiplicity
  _atom_site_fract_x
  _atom_site_fract_y
  _atom_site_fract_z
  _atom_site_occupancy
  N   N1        1.0  0.6456311822084353  0.5621785281829266  0.4159041598770852  1.0000
  C   C1        1.0  0.5908909929322581  0.6131809791168026  0.39580665595183073  1.0000
  C   C2        1.0  0.5228012663998916  0.6766195258205263  0.3708083778772828  1.0000
  C   C3        1.0  0.5123757117682224  0.7831229312894381  0.25867810344488773  1.0000
  C   C4        1.0  0.44623378513482614  0.8448278278131011  0.23453520286796614  1.0000
  C   C5        1.0  0.3898562925737857  0.7998996134111485  0.3210179687065413  1.0000
  O   O1        1.0  0.32451931967266456  0.8656117400291325  0.29437737944524645  1.0000
  C   C6        1.0  0.2599150548669427  0.7996830233496544  0.3203909495189625  1.0000
  C   C7        1.0  0.2028062980352622  0.8861540863105822  0.3543163876174622  1.0000
  C   C8        1.0  0.1373494309470791  0.8247753908462226  0.3794046527259409  1.0000
  C   C9        1.0  0.12834394185342543  0.6761116856518361  0.36933683561990516  1.0000
  C   C10       1.0  0.0609589888253594  0.6129011718773298  0.3949957734291951  1.0000
  N   N2        1.0  0.006785465220123703  0.562082119713065  0.41562490238239325  1.0000
  C   C11       1.0  0.1849769978453139  0.5892774887799421  0.3332820300670112  1.0000
  C   C12       1.0  0.2504248892923963  0.6507004476417513  0.30824236738130506  1.0000
  C   C13       1.0  0.400762689692014  0.6944159599691837  0.4349483769887779  1.0000
  C   C14       1.0  0.46689585598263317  0.6327071748051523  0.45915937978403143  1.0000
  H   H1        1.0  0.5553199180928152  0.818545142887098  0.19013151363915393  1.0000
  H   H2        1.0  0.4386338569581806  0.9272829660479646  0.14777662146649484  1.0000
  H   H3        1.0  0.2093069506802367  0.0012176354242194908  0.36207113397876256  1.0000
  H   H4        1.0  0.09382734088206249  0.8931700390091597  0.40642655993821797  1.0000
  H   H5        1.0  0.1784656523527354  0.47436683054291384  0.32378011119420935  1.0000
  H   H6        1.0  0.2932294797992639  0.5825003392478789  0.27743266121865284  1.0000
  H   H7        1.0  0.358521146410903  0.6614378120228875  0.5062272714391896  1.0000
  H   H8        1.0  0.47449911429753977  0.5514272611162236  0.5471339555082648  1.0000
  C   C15       1.0  0.8282250539737707  0.13872414605737804  0.41409508700371567  1.0000
  C   C16       1.0  0.8088520744129721  0.22066157206127746  0.2870287684314199  1.0000
  C   C17       1.0  0.7838237200510344  0.15344904370413426  0.16669850889988647  1.0000
  C   C18       1.0  0.7777573280253481  0.0033822776396295056  0.1720175081126316  1.0000
  C   C19       1.0  0.7977706167678061  0.9202085853018228  0.29618661453674267  1.0000
  C   C20       1.0  0.8241983636351287  0.9855255887965327  0.4174464175097028  1.0000
  C   C21       1.0  0.7635206615698392  0.23895350266243143  0.03810124849147601  1.0000
  N   N3        1.0  0.7472026290099881  0.30768350334473843  0.9347419906858239  1.0000
  H   H9        1.0  0.8424181857459822  0.21886256660230657  0.7678764979855048  1.0000
  H   H10       1.0  0.8116898316320236  0.33757825649640116  0.28274998959947184  1.0000
  H   H11       1.0  0.7581501415553579  0.9503534287877223  0.07953643345766115  1.0000
  H   H12       1.0  0.7941110190345262  0.8037407212212371  0.2960626001551916  1.0000
  H   H13       1.0  0.8367099814433948  0.6890777743004095  0.6544877048351923  1.0000
  C   C22       1.0  0.8253970521689112  0.5579723900831346  0.9925137637712864  1.0000
  C   C23       1.0  0.7644331756127193  0.6005558151761856  0.06261806501330414  1.0000
  C   C24       1.0  0.7068458429758842  0.6547257935469143  0.9836944863566357  1.0000
  C   C25       1.0  0.7088744868306877  0.6677531455779135  0.8324644270945374  1.0000
  C   C26       1.0  0.7689057180263688  0.6234292428304016  0.7612140784333778  1.0000
  C   C27       1.0  0.8270263381320251  0.5662772765944106  0.8390277483342659  1.0000
  C   C28       1.0  0.6486535866349684  0.7258888539850061  0.7473500867679115  1.0000
  O   O2        1.0  0.5938533164498943  0.7660765410139341  0.8082575801525489  1.0000
  H   H14       1.0  0.9958446285708985  0.5211924549843059  0.09902528654759757  1.0000
  H   H15       1.0  0.6609646577437623  0.6877448576993486  0.04126212388728279  1.0000
  H   H16       1.0  0.7696800023213479  0.6304163657026312  0.6440844439843381  1.0000
  H   H17       1.0  0.9416241142220574  0.5362792250292745  0.5613548194731197  1.0000
  H   H18       1.0  0.6510865549874546  0.734639973833932  0.6305132917602156  1.0000
  Zn  Zn1       1.0  0.7498525500021621  0.562146941950842  0.4158318741328537  1.0000
  Zn  Zn2       1.0  0.902564193365349  0.5621020706331457  0.4157089262752578  1.0000
  C   C29       1.0  0.8267441451279157  0.5589635511364257  0.6789957061727265  1.0000
  C   C30       1.0  0.8256742574674594  0.5652872815859615  0.1525452415594546  1.0000
  C   C31       1.0  0.8249448488846278  0.8254057232251699  0.41106931983564854  1.0000
  C   C32       1.0  0.8274735099861967  0.29884337797561367  0.42047169792632855  1.0000
  O   O3        1.0  0.8837205928021995  0.5677189073036124  0.20620658444532558  1.0000
  O   O4        1.0  0.8846024179726326  0.5564967773414924  0.6252406294952346  1.0000
  O   O5        1.0  0.8831486851477263  0.771652215857245  0.4088881834666078  1.0000
  O   O6        1.0  0.885174273259915  0.35256347805718513  0.42255892248681004  1.0000
  O   O7        1.0  0.7672424179945848  0.7716855345436111  0.4089818779556824  1.0000
  O   O8        1.0  0.7686961424310303  0.5565318275662704  0.6253342539888938  1.0000
  O   O9        1.0  0.7678143142105076  0.5677538902829351  0.20629847584134509  1.0000
  O   O10       1.0  0.7692679949224027  0.3525984517839904  0.42265092190435305  1.0000
