data_image0
_chemical_formula_structural       NC9NC3SH6C7NC2NH5C6OCH7Zn2C4O8
_chemical_formula_sum              "N4 C32 S1 H18 O9 Zn2"
_cell_length_a       16.77567553997237
_cell_length_b       9.273995741505848
_cell_length_c       9.273891588657152
_cell_angle_alpha    86.22271932508039
_cell_angle_beta     90.06962488754225
_cell_angle_gamma    91.47570659476311

_space_group_name_H-M_alt    "P 1"
_space_group_IT_number       1

loop_
  _space_group_symop_operation_xyz
  'x, y, z'

loop_
  _atom_site_type_symbol
  _atom_site_label
  _atom_site_symmetry_multiplicity
  _atom_site_fract_x
  _atom_site_fract_y
  _atom_site_fract_z
  _atom_site_occupancy
  N   N1        1.0  0.7644931137035975  0.5849968226592352  0.4220215119171767  1.0000
  C   C1        1.0  0.7099137517536892  0.6401990633690937  0.46834059268898964  1.0000
  C   C2        1.0  0.6421799544498396  0.7087013900202899  0.5258190295726162  1.0000
  C   C3        1.0  0.6445480944524176  0.8074893060548703  0.6315831656809698  1.0000
  C   C4        1.0  0.569077615720749  0.8560882590289756  0.6666882501148945  1.0000
  C   C5        1.0  0.5069720232788727  0.7953556568911442  0.5881517468810391  1.0000
  C   C6        1.0  0.4206082520328357  0.8244131820257209  0.6002734516195491  1.0000
  C   C7        1.0  0.3634882492216451  0.7354350553429772  0.5353427151940188  1.0000
  C   C8        1.0  0.28196512392316087  0.7622490813323384  0.5462856635872373  1.0000
  C   C9        1.0  0.22416560962337717  0.670293108462465  0.47979825581612023  1.0000
  N   N2        1.0  0.1777118678256833  0.59637368651778  0.4263522023960016  1.0000
  C   C10       1.0  0.2567346780479206  0.8783878576862003  0.62198146173041  1.0000
  C   C11       1.0  0.3127655703361297  0.967537744160223  0.6864003450913065  1.0000
  C   C12       1.0  0.3941323291010924  0.9411301112607031  0.6757854559385206  1.0000
  S   S1        1.0  0.5472560226884483  0.6809597950725044  0.4756239696374591  1.0000
  H   H1        1.0  0.6989973093690338  0.8433339740782692  0.6824770324911759  1.0000
  H   H2        1.0  0.5609917261119004  0.9322378000623959  0.7484511148397714  1.0000
  H   H3        1.0  0.3819519268969813  0.6446157840452982  0.4768864133894939  1.0000
  H   H4        1.0  0.193845297616629  0.9000809746413359  0.6310166668099053  1.0000
  H   H5        1.0  0.2931184746182888  0.057674637772135995  0.7445024462384016  1.0000
  H   H6        1.0  0.43582765872382273  0.013371704788446067  0.7256571313509462  1.0000
  C   C13       1.0  0.9687249018548291  0.1671213057939482  0.4231089910481185  1.0000
  C   C14       1.0  0.9831214456896219  0.2495758484487749  0.2929062450096407  1.0000
  C   C15       1.0  0.004636142868816859  0.1839245735623984  0.1681845382854179  1.0000
  C   C16       1.0  0.012646757113766062  0.03371565630955087  0.17010589302309853  1.0000
  C   C17       1.0  0.9965795507399496  0.9499267284408229  0.29909706777669576  1.0000
  C   C18       1.0  0.9734876102062668  0.014238399738440547  0.425277246070467  1.0000
  C   C19       1.0  0.03642513877452403  0.9661624515681618  0.03640935133723678  1.0000
  N   N3        1.0  0.03972857854953982  0.03935425577093098  0.9054670442937032  1.0000
  C   C20       1.0  0.06392098985640948  0.9413135612081605  0.8150662372901962  1.0000
  C   C21       1.0  0.07506497276627777  0.8113974806133131  0.8917030744999185  1.0000
  N   N4        1.0  0.05780717458606998  0.8271806915130827  0.030888686487790418  1.0000
  H   H7        1.0  0.9034323230995562  0.43180016385759895  0.6298736779625016  1.0000
  H   H8        1.0  0.016187660077199073  0.2515576319734092  0.07038841073246349  1.0000
  H   H9        1.0  0.9738008212238042  0.7183825449170167  0.6649812079259698  1.0000
  H   H10       1.0  0.07309256646619411  0.9635491149843365  0.7002415509303717  1.0000
  H   H11       1.0  0.06188394073142534  0.7475136484591325  0.11518680276909232  1.0000
  C   C22       1.0  0.9723909928600786  0.5868958098089543  0.0009217129163086039  1.0000
  C   C23       1.0  0.038030429037640756  0.6496162051098715  0.07033569459263767  1.0000
  C   C24       1.0  0.09920768815000815  0.7229826012570553  0.9913463981221576  1.0000
  C   C25       1.0  0.09496486474557322  0.7339960094128528  0.839889155863613  1.0000
  C   C26       1.0  0.03099565366683388  0.6704483772145173  0.7691482970909838  1.0000
  C   C27       1.0  0.9698214997233575  0.5944638951758616  0.8474645292650833  1.0000
  O   O1        1.0  0.16265963595328503  0.7838671511589634  0.06736592064542535  1.0000
  C   C28       1.0  0.22874544531637575  0.8615842941133754  0.0011719862939967248  1.0000
  H   H12       1.0  0.782239001183269  0.4930843808245149  0.10972453102514934  1.0000
  H   H13       1.0  0.1412055497184741  0.7903389407445032  0.7755893783553502  1.0000
  H   H14       1.0  0.03039408876988281  0.6778644653038438  0.6520794057860182  1.0000
  H   H15       1.0  0.8429800254637524  0.5256201046369883  0.570529071587456  1.0000
  H   H16       1.0  0.20789117364856025  0.9586017825838369  0.9368019281728706  1.0000
  H   H17       1.0  0.2615887762902019  0.7909147578953493  0.9309245221358378  1.0000
  H   H18       1.0  0.2697544456515484  0.8971845350813691  0.0865315404207585  1.0000
  Zn  Zn1       1.0  0.8837390760584165  0.5882761633281659  0.4232795782455723  1.0000
  Zn  Zn2       1.0  0.0584657984232715  0.5930826851457277  0.42510594288297754  1.0000
  C   C29       1.0  0.9702731176581167  0.5872872573572661  0.6874351025972991  1.0000
  C   C30       1.0  0.9719336746365876  0.5940734647872585  0.16095058460505762  1.0000
  C   C31       1.0  0.9726006856434465  0.8540638168827349  0.4191235915947953  1.0000
  C   C32       1.0  0.9696060370529835  0.32729517137197955  0.4292621673948721  1.0000
  O   O2        1.0  0.03808803962599616  0.59830010873988  0.21535081558073782  1.0000
  O   O3        1.0  0.03673228718418842  0.5867075604190038  0.6344206224150802  1.0000
  O   O4        1.0  0.03861092935741217  0.8021329948957554  0.4177571734274963  1.0000
  O   O5        1.0  0.03620933821641992  0.38287468197491004  0.43201415589791126  1.0000
  O   O6        1.0  0.9059954766396449  0.7984841648602565  0.4163713645998126  1.0000
  O   O7        1.0  0.9041168444390719  0.5830604626345872  0.6330347411692594  1.0000
  O   O8        1.0  0.9054726019112901  0.5946529452010341  0.2139632012488868  1.0000
  O   O9        1.0  0.9035939001124429  0.379227509085555  0.4306266496056448  1.0000
