data_image0
_chemical_formula_structural       NC9NC3OH6C7OC3OC4H11C7OC3OC4H12Zn2C4O8
_chemical_formula_sum              "N2 C44 O13 H29 Zn2"
_cell_length_a       15.78231758774541
_cell_length_b       10.299371110280154
_cell_length_c       10.299374482448636
_cell_angle_alpha    85.56563777426874
_cell_angle_beta     90.0656979821288
_cell_angle_gamma    89.64456115777638

_space_group_name_H-M_alt    "P 1"
_space_group_IT_number       1

loop_
  _space_group_symop_operation_xyz
  'x, y, z'

loop_
  _atom_site_type_symbol
  _atom_site_label
  _atom_site_symmetry_multiplicity
  _atom_site_fract_x
  _atom_site_fract_y
  _atom_site_fract_z
  _atom_site_occupancy
  N   N1        1.0  0.7983642688735594  0.41360353835008357  0.5703153362470168  1.0000
  C   C1        1.0  0.7498159541775956  0.3315341429358798  0.5943698200611385  1.0000
  C   C2        1.0  0.6895414226716856  0.22966607437754696  0.6242276318211573  1.0000
  C   C3        1.0  0.7091786479533344  0.10170338254666708  0.6616544425521553  1.0000
  C   C4        1.0  0.6324357613704691  0.039687635919543496  0.6798674937616487  1.0000
  C   C5        1.0  0.5706738710440964  0.1343946636895452  0.6522086519908195  1.0000
  C   C6        1.0  0.4775794021227589  0.11688476085855945  0.6574141183985092  1.0000
  C   C7        1.0  0.4238556035345917  0.22424708507972024  0.6258943170961684  1.0000
  C   C8        1.0  0.33564625666201525  0.20988938292023662  0.6301698356901775  1.0000
  C   C9        1.0  0.281226582191162  0.320375471533283  0.5977247027135373  1.0000
  N   N2        1.0  0.23748605611533152  0.40919203242693114  0.5716417142074277  1.0000
  C   C10       1.0  0.30047938903302795  0.08800956231963908  0.6660141003477772  1.0000
  C   C11       1.0  0.35327229830248996  0.9808692056954833  0.6974730925881478  1.0000
  C   C12       1.0  0.44129590458522094  0.9948324790352568  0.6933137574107415  1.0000
  O   O1        1.0  0.6071545493615297  0.24663482442567375  0.6193318669005248  1.0000
  H   H1        1.0  0.7716305120188807  0.058549783823269794  0.6742252544171483  1.0000
  H   H2        1.0  0.6236834022142815  0.9377175053596983  0.7097071624619937  1.0000
  H   H3        1.0  0.45047990077021965  0.3190911976468829  0.5979964017308683  1.0000
  H   H4        1.0  0.2323606753946219  0.07584933519199999  0.6696331197619689  1.0000
  H   H5        1.0  0.3259178140032466  0.8866734966073861  0.7251807069352714  1.0000
  H   H6        1.0  0.4803654966019486  0.9099697695304209  0.7182397448888024  1.0000
  C   C13       1.0  0.01787210387623528  0.030026954534277738  0.5708635506620784  1.0000
  C   C14       1.0  0.008137551262919589  0.039446058460856914  0.43484615549751693  1.0000
  C   C15       1.0  0.002270573115789926  0.9270194486255638  0.3664080467635733  1.0000
  C   C16       1.0  0.008179544573613695  0.8041776782447809  0.4351573749145956  1.0000
  C   C17       1.0  0.01798631049596409  0.7927585681468882  0.571104752988616  1.0000
  C   C18       1.0  0.02255399613934439  0.9062833239488994  0.6382082059860981  1.0000
  C   C19       1.0  0.9928752376896915  0.9368284953250701  0.22262959606311972  1.0000
  O   O2        1.0  0.027621719520165556  0.8514566623748093  0.1587102463276744  1.0000
  C   C20       1.0  0.9440523411274612  0.04340586115711309  0.15136978136140167  1.0000
  C   C21       1.0  0.9677624058866484  0.08835948638436975  0.024296143920434776  1.0000
  C   C22       1.0  0.921946237746076  0.18785039006307103  0.9547754864641109  1.0000
  O   O3        1.0  0.9490244638484792  0.22941727410269125  0.8287567552232202  1.0000
  C   C23       1.0  0.9086523536447915  0.3293283224574042  0.7471980962499778  1.0000
  C   C24       1.0  0.8508564660959197  0.24240874411338995  0.013050091308709265  1.0000
  C   C25       1.0  0.8262768105464974  0.19717439606971188  0.13860401103096143  1.0000
  C   C26       1.0  0.8722434994405166  0.09796346906584687  0.2073729295702993  1.0000
  H   H7        1.0  0.03753527242906607  0.21957863794975063  0.8273213456267532  1.0000
  H   H8        1.0  0.006050471602237813  0.1344147366268611  0.3818090098566502  1.0000
  H   H9        1.0  0.004294702954614759  0.7173695570687602  0.3824220739917603  1.0000
  H   H10       1.0  0.03005916829081399  0.8982180782744112  0.7430676529993971  1.0000
  H   H11       1.0  0.022555995874659288  0.04692434859007034  0.9790878422706454  1.0000
  H   H12       1.0  0.9432361562045369  0.3420955593692687  0.6534296790092022  1.0000
  H   H13       1.0  0.9098909477552458  0.42276080122980764  0.7942218942848345  1.0000
  H   H14       1.0  0.8422538050030409  0.30176699338893176  0.7272329022901567  1.0000
  H   H15       1.0  0.8140627094952655  0.3192903543141378  0.9620494081910778  1.0000
  H   H16       1.0  0.7711632377975084  0.23877445910433615  0.18258958807133796  1.0000
  H   H17       1.0  0.8510865617349522  0.06300362645625213  0.30368974694456896  1.0000
  C   C27       1.0  0.018007708969939078  0.41147945802940283  0.18960187140261842  1.0000
  C   C28       1.0  0.10651463338635686  0.42525470360456774  0.187502461719657  1.0000
  C   C29       1.0  0.15104826442098107  0.43367502453817997  0.06915593184527546  1.0000
  C   C30       1.0  0.10631209189741225  0.4251928672507986  0.9522629790288337  1.0000
  C   C31       1.0  0.017850685270861734  0.4113060415214871  0.9523663692706605  1.0000
  C   C32       1.0  0.9741864263697599  0.4048709612911123  0.07154362945574122  1.0000
  C   C33       1.0  0.24460470297974557  0.4468612124289042  0.06690396498727891  1.0000
  O   O4        1.0  0.28616665669173447  0.3929013708412043  0.9811654645307746  1.0000
  C   C34       1.0  0.2910076163570532  0.5212767993738343  0.16183559161731953  1.0000
  C   C35       1.0  0.37366934868354296  0.4837283416408509  0.2002379580321714  1.0000
  C   C36       1.0  0.4189384025307754  0.5535379678139603  0.28860021768753974  1.0000
  O   O5        1.0  0.5009111890638858  0.5108220494433566  0.3241278246958512  1.0000
  C   C37       1.0  0.5540084036001574  0.5721596252185372  0.4127000666945255  1.0000
  C   C38       1.0  0.3810774056796029  0.6633054758897616  0.3384350545338186  1.0000
  C   C39       1.0  0.29940515622151254  0.7021772125947103  0.29952554353808014  1.0000
  C   C40       1.0  0.2546251118502383  0.6321296633929323  0.2114057199026744  1.0000
  H   H18       1.0  0.8511287998705429  0.3834948852615306  0.4010394509430848  1.0000
  H   H19       1.0  0.14102481132871236  0.4280000088431166  0.27819895578474907  1.0000
  H   H20       1.0  0.14062722358306023  0.43070373981928883  0.8609748640060468  1.0000
  H   H21       1.0  0.9059540539398281  0.39425040195763184  0.07235840522683068  1.0000
  H   H22       1.0  0.9839474993747351  0.4048870418248802  0.6250330513975038  1.0000
  H   H23       1.0  0.403041475842852  0.3991207665444801  0.16242154427517752  1.0000
  H   H24       1.0  0.6149917841592571  0.518189518017677  0.42282610389334163  1.0000
  H   H25       1.0  0.523411561951842  0.5706660602076743  0.5098417856723967  1.0000
  H   H26       1.0  0.5670503033472125  0.6740348373478107  0.3751101281118632  1.0000
  H   H27       1.0  0.4142894649357203  0.7194098197508392  0.4067441428217047  1.0000
  H   H28       1.0  0.2708288735979534  0.7872658445728014  0.33737344657311863  1.0000
  H   H29       1.0  0.1919732417862875  0.6654860084879644  0.18100264523443155  1.0000
  Zn  Zn1       1.0  0.9250853254118033  0.41232700233695657  0.5707055929070768  1.0000
  Zn  Zn2       1.0  0.11076496731206181  0.4104579665038754  0.571262070886615  1.0000
  C   C41       1.0  0.017877709178289566  0.4061651457663744  0.8081859408743932  1.0000
  C   C42       1.0  0.017974611380591185  0.4166214412633176  0.33378185698508833  1.0000
  C   C43       1.0  0.01796141987880183  0.6485872688637  0.5658837798475616  1.0000
  C   C44       1.0  0.01789083707272865  0.17419775847775942  0.5760840865696998  1.0000
  O   O6        1.0  0.08842795910252588  0.41763218268180724  0.3823811559485439  1.0000
  O   O7        1.0  0.08835091325446415  0.4037348697547871  0.7600086216524535  1.0000
  O   O8        1.0  0.08841756053123606  0.5994938092566235  0.5643479098754428  1.0000
  O   O9        1.0  0.08836124848730531  0.2218732531301519  0.5780417701605265  1.0000
  O   O10       1.0  0.9474889808732122  0.6009117163499054  0.5639258934364351  1.0000
  O   O11       1.0  0.9474223338404422  0.40515433717552773  0.7595865364589369  1.0000
  O   O12       1.0  0.9474993800595023  0.419051605200768  0.38195750928551475  1.0000
  O   O13       1.0  0.9474326694193826  0.22329266633815759  0.5776182208657967  1.0000
