data_image0
_chemical_formula_structural       NC5NC3F3CH3C6NH7C7OH5Zn2C4O8
_chemical_formula_sum              "N3 C26 F3 H15 O9 Zn2"
_cell_length_a       13.85151926108384
_cell_length_b       9.274771166103582
_cell_length_c       9.274074313596557
_cell_angle_alpha    86.0140142098405
_cell_angle_beta     90.23361225849852
_cell_angle_gamma    90.59705350001695

_space_group_name_H-M_alt    "P 1"
_space_group_IT_number       1

loop_
  _space_group_symop_operation_xyz
  'x, y, z'

loop_
  _atom_site_type_symbol
  _atom_site_label
  _atom_site_symmetry_multiplicity
  _atom_site_fract_x
  _atom_site_fract_y
  _atom_site_fract_z
  _atom_site_occupancy
  N   N1        1.0  0.9156400094381552  0.5630267227802589  0.4073503636295541  1.0000
  C   C1        1.0  0.8434219400574406  0.5545578573394465  0.4698198135129039  1.0000
  C   C2        1.0  0.7535769891114656  0.5440214309808826  0.5475407457705557  1.0000
  C   C3        1.0  0.665903938367013  0.5525036780340498  0.47201583231828614  1.0000
  C   C4        1.0  0.5785249994597963  0.5440214176355318  0.5475407257405285  1.0000
  C   C5        1.0  0.4884026883139643  0.5545578744158102  0.46981990753007485  1.0000
  N   N2        1.0  0.4159618238556946  0.5630266859181066  0.4073504691284815  1.0000
  C   C6        1.0  0.5788033815124569  0.5260604487687508  0.69876836497474  1.0000
  C   C7        1.0  0.666466792442713  0.5144000876134696  0.7755609425560843  1.0000
  C   C8        1.0  0.6668142917343967  0.5004194008045313  0.9385745534306649  1.0000
  F   F1        1.0  0.7473713247821662  0.4260947926645544  0.9903018123826212  1.0000
  F   F2        1.0  0.5855025101858623  0.4260947630328864  0.9903019117134273  1.0000
  F   F3        1.0  0.6679061244507237  0.6367707532459781  0.9900342440927236  1.0000
  C   C9        1.0  0.7538737077439817  0.5260603536870985  0.6987683847615096  1.0000
  H   H1        1.0  0.6656824379842166  0.5665699323386779  0.35492973738209366  1.0000
  H   H2        1.0  0.510805321821726  0.5214470925474064  0.756417209991737  1.0000
  H   H3        1.0  0.8221220746619434  0.5214470112279952  0.7564171691077739  1.0000
  C   C10       1.0  0.16284380859649303  0.13943787898182025  0.4081359693447548  1.0000
  C   C11       1.0  0.14026764800105695  0.22148148367517773  0.27925054672664196  1.0000
  C   C12       1.0  0.12670289048778582  0.1551589243278817  0.14954740297484648  1.0000
  C   C13       1.0  0.13576227559110765  0.005406065566943229  0.14779022986960366  1.0000
  C   C14       1.0  0.15654826731489666  0.922025653382542  0.2749051434482075  1.0000
  C   C15       1.0  0.1687672228164907  0.9866046179761446  0.406577328250302  1.0000
  N   N3        1.0  0.10471590779254639  0.24028812229574445  0.019245454971977827  1.0000
  H   H4        1.0  0.2723759263334016  0.2221943973733531  0.7235582562434288  1.0000
  H   H5        1.0  0.1353983677815802  0.3380687573792082  0.27869692026657966  1.0000
  H   H6        1.0  0.1257824887647434  0.9529392642052203  0.04799674658585684  1.0000
  H   H7        1.0  0.16079128907888549  0.8058211204627518  0.27077746414231063  1.0000
  H   H8        1.0  0.23863462550394732  0.691644819736107  0.6211761636576361  1.0000
  H   H9        1.0  0.09806420221032641  0.3523615640831481  0.01919864262514137  1.0000
  H   H10       1.0  0.0948336422828087  0.19186179482456467  0.9218221856371307  1.0000
  C   C16       1.0  0.1646205297495278  0.5588667501513396  0.984123099881758  1.0000
  C   C17       1.0  0.0807429548843519  0.6014523251939272  0.053933591036751986  1.0000
  C   C18       1.0  0.0017004318276139202  0.6556303675846428  0.9746516695210583  1.0000
  C   C19       1.0  0.0046877475414133256  0.6686638972308159  0.8233476882461703  1.0000
  C   C20       1.0  0.087249647133407  0.6243368425873221  0.7524005150914967  1.0000
  C   C21       1.0  0.1669904539023408  0.5671756645663206  0.8305902188286289  1.0000
  C   C22       1.0  0.9220506911708879  0.7268086823943182  0.7378499925337838  1.0000
  O   O1        1.0  0.8466792938626719  0.7669991281510056  0.7984823157336467  1.0000
  H   H11       1.0  0.40024956719150384  0.5221164005675731  0.09097931346112054  1.0000
  H   H12       1.0  0.9385876708955551  0.6886514698440573  0.03199256051279642  1.0000
  H   H13       1.0  0.0884172008234092  0.6313271950238153  0.6352309909322744  1.0000
  H   H14       1.0  0.3253403959051072  0.5371952245265601  0.5531795727320095  1.0000
  H   H15       1.0  0.925540053268082  0.7355642377319693  0.620964366534571  1.0000
  Zn  Zn1       1.0  0.06002207404469928  0.5630229428637943  0.40735870841438415  1.0000
  Zn  Zn2       1.0  0.27157969243054136  0.5630188157030478  0.4073538972580464  1.0000
  C   C23       1.0  0.1665001800423085  0.5598586995986607  0.6706003387395079  1.0000
  C   C24       1.0  0.16510390975724543  0.5661848803369389  0.14411240499081468  1.0000
  C   C25       1.0  0.1676265102373338  0.8264156639651463  0.40112864570945406  1.0000
  C   C26       1.0  0.16397749547010518  0.2996261836880587  0.413584178050338  1.0000
  O   O2        1.0  0.24555110613864106  0.568633052467924  0.19780446307522848  1.0000
  O   O3        1.0  0.24662031213549263  0.5574063027915839  0.6169042162160345  1.0000
  O   O4        1.0  0.24752875992784404  0.7726544373220521  0.399303914802426  1.0000
  O   O5        1.0  0.2446425859255939  0.35338492719681297  0.4154046564075611  1.0000
  O   O6        1.0  0.08695910835540423  0.7726568313729336  0.3993079492589273  1.0000
  O   O7        1.0  0.08605067246092536  0.5574104291277642  0.6169081706371247  1.0000
  O   O8        1.0  0.08498146132528064  0.5686371115287432  0.19780668478598362  1.0000
  O   O9        1.0  0.08407294133868697  0.3533889770011789  0.41540698619365024  1.0000
