data_image0
_chemical_formula_structural       NC9NC3OH6C9H9C7ONH7Zn2C4O8
_chemical_formula_sum              "N3 C32 O10 H22 Zn2"
_cell_length_a       15.78231758774541
_cell_length_b       9.272676604525723
_cell_length_c       10.297855452804892
_cell_angle_alpha    85.79104961089988
_cell_angle_beta     90.0760746706638
_cell_angle_gamma    90.18380166211226

_space_group_name_H-M_alt    "P 1"
_space_group_IT_number       1

loop_
  _space_group_symop_operation_xyz
  'x, y, z'

loop_
  _atom_site_type_symbol
  _atom_site_label
  _atom_site_symmetry_multiplicity
  _atom_site_fract_x
  _atom_site_fract_y
  _atom_site_fract_z
  _atom_site_occupancy
  N   N1        1.0  0.8068817597263492  0.5697926674355567  0.5758432782923295  1.0000
  C   C1        1.0  0.7578319923127359  0.47866263933930847  0.5995676417215181  1.0000
  C   C2        1.0  0.6969350361359646  0.36554812318501884  0.629015693895095  1.0000
  C   C3        1.0  0.7157903864719414  0.2234580925554639  0.6659277682532148  1.0000
  C   C4        1.0  0.6386685813737684  0.1545956735180818  0.6838913696146012  1.0000
  C   C5        1.0  0.5774853728041086  0.2597585427673501  0.656613498065094  1.0000
  C   C6        1.0  0.4842839251676838  0.24031550110892771  0.6617485431161121  1.0000
  C   C7        1.0  0.43121611564551565  0.35953085655022576  0.6306605937474967  1.0000
  C   C8        1.0  0.34291904962605785  0.3435880258415045  0.6348783696265442  1.0000
  C   C9        1.0  0.28917444960206745  0.46627201698360726  0.6028776522622856  1.0000
  N   N2        1.0  0.24597659613497605  0.5648941179571625  0.5771519163716783  1.0000
  C   C10       1.0  0.3070074976733539  0.20825240359756678  0.6702323971991775  1.0000
  C   C11       1.0  0.3591457746236883  0.08928352091922087  0.7012604310224746  1.0000
  C   C12       1.0  0.44725469011936186  0.10478837697203125  0.6971572520780105  1.0000
  O   O1        1.0  0.6146518528632885  0.3843902491597775  0.6241881971117302  1.0000
  H   H1        1.0  0.7779785683287775  0.17554025588122824  0.6783249846707113  1.0000
  H   H2        1.0  0.6292931682679676  0.04136783338946004  0.7133208607004637  1.0000
  H   H3        1.0  0.4584199087779601  0.46484596940214096  0.6031441690290942  1.0000
  H   H4        1.0  0.2388144902285591  0.19474965527544416  0.6738025112056917  1.0000
  H   H5        1.0  0.33121575621170257  0.9846883966760138  0.7285891628563625  1.0000
  H   H6        1.0  0.4858057681996464  0.010556640610479335  0.721741891418128  1.0000
  C   C13       1.0  0.024032703411158027  0.14388212864050098  0.5748311406280764  1.0000
  C   C14       1.0  0.9901033364063987  0.20833379730703874  0.6823042871076983  1.0000
  C   C15       1.0  0.9639255757503271  0.12446221159684635  0.7929750623378846  1.0000
  C   C16       1.0  0.9708324076732956  0.9736342159213972  0.7998968019948278  1.0000
  C   C17       1.0  0.0033737174629759857  0.9077486070257987  0.6914187686066782  1.0000
  C   C18       1.0  0.028833701443328856  0.9907934711214208  0.5781752653276306  1.0000
  C   C19       1.0  0.9416234697269609  0.8903141780919568  0.924584582274965  1.0000
  C   C20       1.0  0.8988034003885635  0.7447005276548235  0.9115242427971858  1.0000
  C   C21       1.0  0.9882623708898784  0.7511328553906139  0.9667508550790429  1.0000
  H   H7        1.0  0.04287494690151435  0.442548339087276  0.36203879860021027  1.0000
  H   H8        1.0  0.98563269601677  0.32490622826347204  0.6821660971867314  1.0000
  H   H9        1.0  0.9388151188844478  0.17816946987955173  0.8745134463157901  1.0000
  H   H10       1.0  0.050859619515650954  0.9138076173179042  0.2601958722858464  1.0000
  H   H11       1.0  0.91762843337471  0.9506854152140698  0.006295420436213559  1.0000
  H   H12       1.0  0.8948840439560022  0.7055174592125844  0.812490955278394  1.0000
  H   H13       1.0  0.8496898884165711  0.7164484228166138  0.9863130561189617  1.0000
  H   H14       1.0  0.038658740012561504  0.7157288738458009  0.9013414028255742  1.0000
  H   H15       1.0  0.9914311412579848  0.7266341011677252  0.07383411889474845  1.0000
  C   C22       1.0  0.026467237137793625  0.5674807844585972  0.19506184953705305  1.0000
  C   C23       1.0  0.9399995651546946  0.6032119863604983  0.1915517148813004  1.0000
  C   C24       1.0  0.8959492919230843  0.6200950564048191  0.07276811761612566  1.0000
  C   C25       1.0  0.9398947069160009  0.602888746752519  0.9563172144121515  1.0000
  C   C26       1.0  0.026399128967149448  0.5671947867929942  0.9579445244852635  1.0000
  C   C27       1.0  0.06906603538817574  0.5493923481929404  0.07777502669998593  1.0000
  C   C28       1.0  0.8046877590731273  0.6581760570338202  0.07163788170949315  1.0000
  O   O2        1.0  0.7736839097530473  0.7200570588426076  0.1655969279064322  1.0000
  N   N3        1.0  0.7503042070172847  0.6246819282433265  0.9667177020538884  1.0000
  H   H16       1.0  0.18996070556020173  0.5004649211398804  0.40893013125707406  1.0000
  H   H17       1.0  0.9065744943469618  0.6167328477407259  0.28166149415588704  1.0000
  H   H18       1.0  0.907443083384234  0.6198795809089378  0.8638946596839312  1.0000
  H   H19       1.0  0.13570697155934208  0.5218503320190899  0.07972690441143926  1.0000
  H   H20       1.0  0.19022477326324705  0.5020000799153681  0.7535956140706115  1.0000
  H   H21       1.0  0.6872307821449106  0.658418546309893  0.9655731934902034  1.0000
  H   H22       1.0  0.7700683108875298  0.5586704537117022  0.8948302949058711  1.0000
  Zn  Zn1       1.0  0.933595018393855  0.5683751972078499  0.5762284026541897  1.0000
  Zn  Zn2       1.0  0.11926324130892513  0.5662998148535754  0.576777363872836  1.0000
  C   C29       1.0  0.026377553897518603  0.5615041969889605  0.8137206876777691  1.0000
  C   C30       1.0  0.026482743599347103  0.5731726118382534  0.3392852195189313  1.0000
  C   C31       1.0  0.02792228817484332  0.8307112007572908  0.572366974562601  1.0000
  C   C32       1.0  0.024937936138972536  0.30396387623643983  0.5806389948575559  1.0000
  O   O3        1.0  0.09694803502483908  0.5742889532363542  0.38789620306222883  1.0000
  O   O4        1.0  0.09683014146086566  0.5588116006891355  0.7655259747847867  1.0000
  O   O5        1.0  0.09807658396891261  0.7761996709302164  0.5706311469388339  1.0000
  O   O6        1.0  0.09570152922797565  0.35690089405556624  0.5827909333684286  1.0000
  O   O7        1.0  0.9571566671153608  0.7777741187156575  0.5702148329644374  1.0000
  O   O8        1.0  0.9559102344309216  0.560387781017859  0.7651095983927743  1.0000
  O   O9        1.0  0.9560281279057876  0.5758650838988848  0.387478264774729  1.0000
  O   O10       1.0  0.9547816220382978  0.3584770143676026  0.5823730924265227  1.0000
