data_image0
_chemical_formula_structural       NC5NC3BrH3C6ClH5C7OH5Zn2C4O8
_chemical_formula_sum              "N2 C25 Br1 H13 Cl1 O9 Zn2"
_cell_length_a       13.839083392302014
_cell_length_b       10.30297070629231
_cell_length_c       9.274074313596557
_cell_angle_alpha    86.12141784095925
_cell_angle_beta     90.2343589418284
_cell_angle_gamma    90.02428142920579

_space_group_name_H-M_alt    "P 1"
_space_group_IT_number       1

loop_
  _space_group_symop_operation_xyz
  'x, y, z'

loop_
  _atom_site_type_symbol
  _atom_site_label
  _atom_site_symmetry_multiplicity
  _atom_site_fract_x
  _atom_site_fract_y
  _atom_site_fract_z
  _atom_site_occupancy
  N   N1        1.0  0.9055243588005158  0.40734106881916343  0.4102022545773525  1.0000
  C   C1        1.0  0.8335296695049051  0.35006335580076753  0.4126656395381018  1.0000
  C   C2        1.0  0.743830146279435  0.278790075688877  0.4157307844538629  1.0000
  C   C3        1.0  0.6562641918686491  0.3473704479239272  0.412781643711684  1.0000
  C   C4        1.0  0.5682267937067731  0.2801155328855336  0.4156737262227109  1.0000
  C   C5        1.0  0.4784581254917987  0.3508121716241854  0.4126334194280419  1.0000
  N   N2        1.0  0.4062957639772294  0.4076467250686029  0.4101890540856723  1.0000
  C   C6        1.0  0.5676895558223632  0.1439998919308474  0.42152705344655217  1.0000
  C   C7        1.0  0.6548104791791061  0.07531037737967129  0.42448079624807095  1.0000
  C   C8        1.0  0.743043993901265  0.1419225771087531  0.42161637234945004  1.0000
  Br  Br1       1.0  0.8604605478258595  0.042840699889028944  0.4258772400273627  1.0000
  H   H1        1.0  0.6566254147530046  0.4528485479411976  0.40824561110711444  1.0000
  H   H2        1.0  0.5000023622736848  0.09103225147260474  0.4238045322442774  1.0000
  H   H3        1.0  0.6536860273288042  0.9700565610526274  0.42900680661095403  1.0000
  C   C9        1.0  0.1559146850482265  0.026246493534939807  0.41020188436741983  1.0000
  C   C10       1.0  0.2557677738723869  0.023409671055290016  0.43795991763398406  1.0000
  C   C11       1.0  0.30531221115054885  0.9050452706565287  0.45173261212043625  1.0000
  C   C12       1.0  0.2557677729156718  0.7883017017858489  0.4379598498505868  1.0000
  C   C13       1.0  0.15591469558594273  0.7887314360830925  0.41020196687234406  1.0000
  C   C14       1.0  0.1064748898082648  0.9082976883542566  0.39645822647515205  1.0000
  Cl  Cl1       1.0  0.43005250941904727  0.9030049195528185  0.4864089098061557  1.0000
  H   H4        1.0  0.11830177314660384  0.3546181860708968  0.39974511248503874  1.0000
  H   H5        1.0  0.29548177367482054  0.11280666122759575  0.4489998383265923  1.0000
  H   H6        1.0  0.2954817351790695  0.6976054674609979  0.4489997347772179  1.0000
  H   H7        1.0  0.029465157389303442  0.909557204413541  0.3750503524185145  1.0000
  H   H8        1.0  0.11830176917819513  0.46159022179676795  0.39974538460071596  1.0000
  C   C15       1.0  0.15475773111548194  0.40374903806653006  0.9869607526788822  1.0000
  C   C16       1.0  0.07050675712887777  0.442026387399435  0.0568518227683783  1.0000
  C   C17       1.0  0.9910140527521039  0.4907403387110097  0.9776716834653086  1.0000
  C   C18       1.0  0.9939128409239393  0.5024728211753362  0.8263916060027219  1.0000
  C   C19       1.0  0.07685914466678566  0.4626272722242082  0.755360684231722  1.0000
  C   C20       1.0  0.15707163700350013  0.41122881535060507  0.8334430980694992  1.0000
  C   C21       1.0  0.9107946128141486  0.554754791496864  0.7410030866919146  1.0000
  O   O1        1.0  0.835074221959083  0.5908816323863049  0.8017113566678338  1.0000
  H   H9        1.0  0.39085569850567037  0.37081630940978805  0.09374311208019147  1.0000
  H   H10       1.0  0.927613487076285  0.5204219945341941  0.03507500489385306  1.0000
  H   H11       1.0  0.07797882725277172  0.4689195605701068  0.6382039920428126  1.0000
  H   H12       1.0  0.3157736866611607  0.38434204653744203  0.5559730983877678  1.0000
  H   H13       1.0  0.9142258368897512  0.5626372459366575  0.6241334793939393  1.0000
  Zn  Zn1       1.0  0.05003619479807054  0.4074258673797282  0.41020677471151173  1.0000
  Zn  Zn2       1.0  0.2617839524534369  0.40755138984684036  0.4101963620352578  1.0000
  C   C22       1.0  0.15663212858516132  0.40464297741515937  0.673439767106889  1.0000
  C   C23       1.0  0.15519033133204063  0.4103359205297723  0.14696351098781402  1.0000
  C   C24       1.0  0.15589403636861213  0.6445547681994279  0.4044585317535496  1.0000
  C   C25       1.0  0.15592835150386808  0.1704225705760645  0.4159448231852993  1.0000
  O   O2        1.0  0.23569268641383778  0.41258850964166416  0.20065794676294058  1.0000
  O   O3        1.0  0.2368414209200027  0.40248467387483355  0.6197370134590833  1.0000
  O   O4        1.0  0.23624432296428147  0.5962164916322472  0.4025327628777191  1.0000
  O   O5        1.0  0.23628971181898462  0.21885670017377265  0.4178620892819817  1.0000
  O   O6        1.0  0.07553036317338437  0.5961205570113078  0.40254104746076014  1.0000
  O   O7        1.0  0.07612746091468892  0.4023902983818452  0.6197452211939511  1.0000
  O   O8        1.0  0.07497872173592368  0.41249407359522894  0.20066442166381626  1.0000
  O   O9        1.0  0.07557574743250649  0.2187622557963267  0.4178686722411533  1.0000
