data_image0
_chemical_formula_structural       NC5NC3OH4C7NH5C9H8Zn2C4O8
_chemical_formula_sum              "N3 C28 O9 H17 Zn2"
_cell_length_a       13.84702359539666
_cell_length_b       9.275154477615127
_cell_length_c       9.275155815604965
_cell_angle_alpha    86.28252252333478
_cell_angle_beta     90.34320021190106
_cell_angle_gamma    89.43463511314383

_space_group_name_H-M_alt    "P 1"
_space_group_IT_number       1

loop_
  _space_group_symop_operation_xyz
  'x, y, z'

loop_
  _atom_site_type_symbol
  _atom_site_label
  _atom_site_symmetry_multiplicity
  _atom_site_fract_x
  _atom_site_fract_y
  _atom_site_fract_z
  _atom_site_occupancy
  N   N1        1.0  0.8924013627253254  0.5642954953100447  0.416112734734273  1.0000
  C   C1        1.0  0.8205743737615953  0.5561707523164922  0.4791305198190101  1.0000
  C   C2        1.0  0.7311227936967821  0.546053730977073  0.5576009402735791  1.0000
  C   C3        1.0  0.6431571935355063  0.5558274097106197  0.4817928809197562  1.0000
  C   C4        1.0  0.5556728150358101  0.5461672857743282  0.5567197579687209  1.0000
  C   C5        1.0  0.4654290318966242  0.5562300539797294  0.47867025237843724  1.0000
  N   N2        1.0  0.3928846907746253  0.5643197490249219  0.4159246723371388  1.0000
  C   C6        1.0  0.5561498184810394  0.5267043226114243  0.7076799190033183  1.0000
  C   C7        1.0  0.6437355345595378  0.5169215102197016  0.7835559624382182  1.0000
  C   C8        1.0  0.7315377781142663  0.5265193917027726  0.7091134432319584  1.0000
  O   O1        1.0  0.8188445216633714  0.5167198940072583  0.7851208028754397  1.0000
  H   H1        1.0  0.642792231764074  0.5709057568466838  0.3648419382597834  1.0000
  H   H2        1.0  0.4888918314905715  0.5191012882636852  0.7666508189830674  1.0000
  H   H3        1.0  0.6433209782443465  0.5018730766227011  0.9002756504848486  1.0000
  H   H4        1.0  0.8209262772464844  0.5026359527245943  0.8943587317675591  1.0000
  C   C9        1.0  0.1454353340599777  0.14090409690311811  0.41434980557744017  1.0000
  C   C10       1.0  0.11840338995752675  0.22298763299033444  0.28728225449308287  1.0000
  C   C11       1.0  0.0835441002644215  0.15591124358559139  0.16694914097431424  1.0000
  C   C12       1.0  0.07514510743636094  0.005836070895960166  0.17226645575173172  1.0000
  C   C13       1.0  0.10306016510332784  0.9225199602620644  0.296437039718936  1.0000
  C   C14       1.0  0.13986007167918804  0.9877001748066467  0.417700023165716  1.0000
  C   C15       1.0  0.055221032982733176  0.24156334099538945  0.03835045734667841  1.0000
  N   N3        1.0  0.03245713195245425  0.31041200531768576  0.9349900557448354  1.0000
  H   H5        1.0  0.16561932455321404  0.22062247686856987  0.7681246152778158  1.0000
  H   H6        1.0  0.12232969084056645  0.33991039983538984  0.28300431515760205  1.0000
  H   H7        1.0  0.047838977288918276  0.9529117293673983  0.07978309388776372  1.0000
  H   H8        1.0  0.0979885536372389  0.8060510262749816  0.29631210512566675  1.0000
  H   H9        1.0  0.15754379982425837  0.6909719236958225  0.6547376452513427  1.0000
  C   C16       1.0  0.14090226298696246  0.5606575705250135  0.992779904193053  1.0000
  C   C17       1.0  0.06489185543626186  0.6309088442954938  0.0609011173885623  1.0000
  C   C18       1.0  0.9952868168502672  0.7107428449153106  0.9799581700340688  1.0000
  C   C19       1.0  0.00040010121319777615  0.7219973163377345  0.8294189478970075  1.0000
  C   C20       1.0  0.07447223615167009  0.6509712822511401  0.7595870355020518  1.0000
  C   C21       1.0  0.1443931178720279  0.5679466331675389  0.8392698366637732  1.0000
  C   C22       1.0  0.9288207795331925  0.8051997345145172  0.7461774426310868  1.0000
  C   C23       1.0  0.8688859685992232  0.8748703974950954  0.6764473988582398  1.0000
  C   C24       1.0  0.796165847974799  0.9594039670879247  0.5918303039314434  1.0000
  H   H10       1.0  0.36582229566231717  0.44433967255403695  0.10519327697289338  1.0000
  H   H11       1.0  0.06057946637329081  0.6269118662902379  0.17767847376888457  1.0000
  H   H12       1.0  0.9379409103341401  0.764932593292877  0.035007019942353335  1.0000
  H   H13       1.0  0.07621192893073991  0.6577512849619366  0.6424668923014005  1.0000
  H   H14       1.0  0.29450725922760435  0.48445664996645155  0.5653008985839709  1.0000
  H   H15       1.0  0.8157628774672174  0.9635475513965132  0.47584032996636877  1.0000
  H   H16       1.0  0.7245785434681198  0.9080572457407592  0.6066804883359023  1.0000
  H   H17       1.0  0.7929887964712535  0.07073623745969249  0.6287764125697977  1.0000
  Zn  Zn1       1.0  0.03683009812488525  0.5642987060905935  0.4160667593677754  1.0000
  Zn  Zn2       1.0  0.2484560574974113  0.5643048419718211  0.41598236360558283  1.0000
  C   C25       1.0  0.14376894926677686  0.560824955955582  0.6792424254502538  1.0000
  C   C26       1.0  0.14151950591007667  0.5677804126209419  0.1528068452617668  1.0000
  C   C27       1.0  0.14088525423795376  0.8275882145068658  0.41132329749699115  1.0000
  C   C28       1.0  0.14440314044789448  0.3010154224494108  0.4207260432317732  1.0000
  O   O2        1.0  0.22203764837211762  0.5701669418092605  0.2064812959107023  1.0000
  O   O3        1.0  0.22387001872752  0.558441992478522  0.625503501171246  1.0000
  O   O4        1.0  0.22154032207282165  0.7738567103140719  0.40915691613970706  1.0000
  O   O5        1.0  0.2243672722996424  0.35475223335525025  0.4228277729449885  1.0000
  O   O6        1.0  0.0609188111050587  0.7738513147065751  0.4092213500495947  1.0000
  O   O7        1.0  0.0632484960331674  0.5584383284906831  0.625567865085616  1.0000
  O   O8        1.0  0.06141611892662958  0.5701632126557947  0.20654392677655187  1.0000
  O   O9        1.0  0.06374574336373273  0.35474849481965465  0.4228905118293167  1.0000
