data_image0
_chemical_formula_structural       NC9NC3OH6C6OCH8C7F3H5Zn2C4O8
_chemical_formula_sum              "N2 C30 O10 H19 F3 Zn2"
_cell_length_a       15.78231758774541
_cell_length_b       9.273888216677433
_cell_length_c       9.27229168140987
_cell_angle_alpha    86.26440928452504
_cell_angle_beta     90.4979467289142
_cell_angle_gamma    89.05820199757645

_space_group_name_H-M_alt    "P 1"
_space_group_IT_number       1

loop_
  _space_group_symop_operation_xyz
  'x, y, z'

loop_
  _atom_site_type_symbol
  _atom_site_label
  _atom_site_symmetry_multiplicity
  _atom_site_fract_x
  _atom_site_fract_y
  _atom_site_fract_z
  _atom_site_occupancy
  N   N1        1.0  0.7820538311260797  0.5556027895738842  0.4178357272578613  1.0000
  C   C1        1.0  0.7341680718331334  0.4647053590083015  0.44425133356285285  1.0000
  C   C2        1.0  0.6747159343218176  0.35187955644158264  0.47703991083958086  1.0000
  C   C3        1.0  0.6953858357687053  0.21015140014183997  0.5181394905823906  1.0000
  C   C4        1.0  0.6191437842525411  0.14146510730189357  0.5381407191561098  1.0000
  C   C5        1.0  0.5566177945871187  0.24636056216271296  0.5077681538398384  1.0000
  C   C6        1.0  0.4636650388046579  0.22696788173253338  0.5134854517450482  1.0000
  C   C7        1.0  0.4090742414247336  0.34587843421366427  0.47887113100888845  1.0000
  C   C8        1.0  0.3209811304849436  0.3299769703249382  0.4835671277111604  1.0000
  C   C9        1.0  0.26566919164677155  0.45234720739677875  0.4479365305384104  1.0000
  N   N2        1.0  0.221211393923905  0.5507170776638695  0.41929269801264923  1.0000
  C   C10       1.0  0.2867987977921559  0.1949879918970233  0.5229312194249957  1.0000
  C   C11       1.0  0.3404569343843975  0.07632332570799427  0.5574788130797652  1.0000
  C   C12       1.0  0.42836749178390127  0.09178793859688672  0.552910410938469  1.0000
  O   O1        1.0  0.592192445542926  0.37067437025182914  0.4716645212045587  1.0000
  H   H1        1.0  0.7581857098913911  0.16235509046264363  0.5319432922430587  1.0000
  H   H2        1.0  0.6112144112121649  0.028525788030821172  0.5709087976403093  1.0000
  H   H3        1.0  0.4349323731219555  0.4509237493551786  0.44823364612541156  1.0000
  H   H4        1.0  0.21877851970521275  0.18152025783273817  0.5269061282031082  1.0000
  H   H5        1.0  0.31386337976252215  0.9719961589465902  0.5879073144732903  1.0000
  H   H6        1.0  0.468122444585192  0.9977972458634887  0.5802836967427543  1.0000
  C   C13       1.0  0.004118605505754485  0.12965729203333412  0.4170994763418445  1.0000
  C   C14       1.0  0.9837949313965362  0.21202027169234766  0.2882587449525158  1.0000
  C   C15       1.0  0.9562858612085997  0.14652522305713922  0.16505036619471847  1.0000
  C   C16       1.0  0.9489418255196667  0.9956714478383639  0.1702192040693993  1.0000
  C   C17       1.0  0.9701406928269216  0.9120793802875053  0.29628960907835405  1.0000
  C   C18       1.0  0.9991548026773609  0.9766515153289823  0.42004139052428247  1.0000
  O   O2        1.0  0.9364934072606518  0.23508645333333944  0.040449972895376  1.0000
  C   C19       1.0  0.9076596047368857  0.18332259098276513  0.9076780511167094  1.0000
  H   H7        1.0  0.0124966228570671  0.20935067603524193  0.771913752158087  1.0000
  H   H8        1.0  0.987356064747432  0.3288188599526336  0.2839972362358778  1.0000
  H   H9        1.0  0.9276382091813024  0.9416562534421536  0.07690607612699663  1.0000
  H   H10       1.0  0.9657353949364369  0.7956557740163018  0.2957949279937975  1.0000
  H   H11       1.0  0.00834418630311617  0.6796992221125275  0.6580353041050415  1.0000
  H   H12       1.0  0.8469209032740134  0.12601957613674153  0.924092143495487  1.0000
  H   H13       1.0  0.956129127178958  0.10979708165009548  0.8646087273418389  1.0000
  H   H14       1.0  0.8970220756529076  0.2764294364958255  0.8279349881133036  1.0000
  C   C20       1.0  0.999874790562659  0.5494723294384225  0.9951909462030373  1.0000
  C   C21       1.0  0.05739708639558391  0.45807509241674477  0.07528414088005064  1.0000
  C   C22       1.0  0.11944826889977755  0.3795493920781796  0.006421102188826076  1.0000
  C   C23       1.0  0.1264445725647898  0.3920439220139497  0.8555958889017852  1.0000
  C   C24       1.0  0.06726182758267729  0.4786821551530405  0.7743103002129401  1.0000
  C   C25       1.0  0.0033986226722269026  0.5568365179906236  0.8419498777423249  1.0000
  C   C26       1.0  0.19201260285624044  0.3039787407025223  0.7809230213901075  1.0000
  F   F1        1.0  0.2631080015810039  0.27883862380870394  0.8679929794197384  1.0000
  F   F2        1.0  0.21695260438517006  0.37586801172212286  0.6531854148632177  1.0000
  F   F3        1.0  0.15787021970242654  0.17294866802959974  0.7503916755695155  1.0000
  H   H15       1.0  0.8788373487407956  0.8422234159912647  0.07589791074503127  1.0000
  H   H16       1.0  0.055491767896014926  0.44948672554143415  0.19229443387341405  1.0000
  H   H17       1.0  0.16254135947766557  0.30983796426732546  0.07153558069795474  1.0000
  H   H18       1.0  0.06965525370616721  0.48250208497859975  0.6573438836182977  1.0000
  H   H19       1.0  0.8105528808291128  0.6971276119454475  0.7284503154263835  1.0000
  Zn  Zn1       1.0  0.9087852709746133  0.554189098772145  0.4182644830918004  1.0000
  Zn  Zn2       1.0  0.09448004361076595  0.5521191004622303  0.41887568707978007  1.0000
  C   C27       1.0  0.002764332274529882  0.549699249951261  0.6818743776063172  1.0000
  C   C28       1.0  0.000503000016855104  0.5566107475641868  0.15526594706770558  1.0000
  C   C29       1.0  6.481123190238103e-05  0.8165016612294428  0.4137400333404151  1.0000
  C   C30       1.0  0.003202468169067889  0.2898066049756147  0.4234003619725907  1.0000
  O   O3        1.0  0.07118406817971001  0.5582146206326715  0.20922050653592877  1.0000
  O   O4        1.0  0.07302130450675998  0.5465232044901026  0.6283832890158905  1.0000
  O   O5        1.0  0.07084046339150607  0.7619695494016633  0.4118629110078206  1.0000
  O   O6        1.0  0.07336484541958609  0.34276828580392804  0.4257407762700709  1.0000
  O   O7        1.0  0.9299004057972398  0.7635399141383405  0.4113993936853575  1.0000
  O   O8        1.0  0.9320812364343555  0.5480953012450638  0.6279197008382927  1.0000
  O   O9        1.0  0.9302439932445228  0.5597866520559969  0.2087551847835898  1.0000
  O   O10       1.0  0.9324247709912231  0.3443403078523292  0.42527556257550764  1.0000
