data_image0
_chemical_formula_structural       NC9NC3OH6C6OCH8C6SCH6Zn2C4O8
_chemical_formula_sum              "N2 C30 O10 H20 S1 Zn2"
_cell_length_a       15.78231758774541
_cell_length_b       9.273888216677433
_cell_length_c       10.302812801239591
_cell_angle_alpha    85.76054612307921
_cell_angle_beta     90.08384720459999
_cell_angle_gamma    89.05820199757645

_space_group_name_H-M_alt    "P 1"
_space_group_IT_number       1

loop_
  _space_group_symop_operation_xyz
  'x, y, z'

loop_
  _atom_site_type_symbol
  _atom_site_label
  _atom_site_symmetry_multiplicity
  _atom_site_fract_x
  _atom_site_fract_y
  _atom_site_fract_z
  _atom_site_occupancy
  N   N1        1.0  0.7886382112988563  0.5693626910296148  0.5752788831847451  1.0000
  C   C1        1.0  0.7406425200617983  0.4782355269616947  0.5990658392958021  1.0000
  C   C2        1.0  0.6810539286677636  0.3651245658940708  0.6285915840249003  1.0000
  C   C3        1.0  0.7015527889259267  0.22303897125693387  0.6656012929158281  1.0000
  C   C4        1.0  0.6252274997238145  0.15417873002306304  0.6836121740880077  1.0000
  C   C5        1.0  0.5628279093965074  0.2593383316055027  0.6562620209316958  1.0000
  C   C6        1.0  0.4698513603432611  0.2398959284903124  0.661410383334393  1.0000
  C   C7        1.0  0.41540461491235103  0.35910751775409133  0.6302405771728927  1.0000
  C   C8        1.0  0.3272919609781255  0.34316521331993455  0.6344692693393678  1.0000
  C   C9        1.0  0.2721283034541069  0.4658453256141853  0.6023843176871775  1.0000
  N   N2        1.0  0.2277897107254398  0.5644643080118306  0.576590868947975  1.0000
  C   C10       1.0  0.2929458095533232  0.20783388989522772  0.6699161907969944  1.0000
  C   C11       1.0  0.3464601718898842  0.08886876724133463  0.7010259099728648  1.0000
  C   C12       1.0  0.4343897412826426  0.1043731110003754  0.6969121152721868  1.0000
  O   O1        1.0  0.598552810264403  0.38396612885226483  0.6237511061705667  1.0000
  H   H1        1.0  0.7642952167520869  0.17512261149581  0.6780314609186728  1.0000
  H   H2        1.0  0.6171617581090812  0.04095443052673599  0.7131194598851932  1.0000
  H   H3        1.0  0.44139024844455066  0.4644192835923575  0.6026518669285729  1.0000
  H   H4        1.0  0.22490898937211187  0.19433158650459317  0.6734955514052179  1.0000
  H   H5        1.0  0.31973998514471147  0.9842769672886531  0.7284264329370584  1.0000
  H   H6        1.0  0.47403077663337573  0.010144355935729484  0.7215614509915382  1.0000
  C   C13       1.0  0.010706049681439067  0.14342359657894949  0.5746158975230187  1.0000
  C   C14       1.0  0.9909185628517723  0.22690708932117756  0.45859626929683145  1.0000
  C   C15       1.0  0.9639222401832878  0.16248356984348786  0.34764851121064266  1.0000
  C   C16       1.0  0.9565566937105472  0.011584841833765184  0.35230299152999023  1.0000
  C   C17       1.0  0.9772309028078955  0.9268963544109041  0.4658279720368547  1.0000
  C   C18       1.0  0.005730003698686258  0.9903922343839262  0.5772650581264956  1.0000
  O   O2        1.0  0.9446483268023935  0.2521284354682307  0.2354472597000219  1.0000
  C   C19       1.0  0.9163670717127473  0.20151927531339964  0.11588763878255559  1.0000
  H   H7        1.0  0.017607461775667403  0.22003120146523103  0.8941221586692036  1.0000
  H   H8        1.0  0.9944974310194529  0.34374273943464995  0.4547588286702886  1.0000
  H   H9        1.0  0.9356414119592216  0.9583811810229952  0.268275570265313  1.0000
  H   H10       1.0  0.9728276635963875  0.8104770503244308  0.4653825172889509  1.0000
  H   H11       1.0  0.01392894503420682  0.6913701353613656  0.791575898153456  1.0000
  H   H12       1.0  0.8555600608927028  0.14407350898606122  0.1306683441924108  1.0000
  H   H13       1.0  0.9650158326867496  0.12836833495635225  0.07710419756462028  1.0000
  H   H14       1.0  0.9060614036447218  0.29531963711146836  0.044079908234086806  1.0000
  C   C20       1.0  0.00821806136673619  0.566907924144396  0.19469201565489902  1.0000
  C   C21       1.0  0.97879579371088  0.71104101190904  0.1838591842708741  1.0000
  C   C22       1.0  0.9639389913379258  0.7825468190305351  0.06149220620236706  1.0000
  C   C23       1.0  0.9787957182073288  0.7110408613770343  0.9487080138799024  1.0000
  C   C24       1.0  0.008218006460064983  0.566907915038912  0.9571889190898357  1.0000
  C   C25       1.0  0.02275933180904621  0.49553341052970556  0.08072250845273277  1.0000
  S   S1        1.0  0.9265210987461007  0.9668029875115347  0.04914737070764862  1.0000
  C   C26       1.0  0.8153547094936755  0.9176605811329288  0.052168916100318256  1.0000
  H   H15       1.0  0.9671081095009078  0.7682910976222541  0.2701229921916841  1.0000
  H   H16       1.0  0.9671079410688169  0.7682908917757674  0.854772678052984  1.0000
  H   H17       1.0  0.045438721099660295  0.3843477824103713  0.08817185674383854  1.0000
  H   H18       1.0  0.8007055940877863  0.8536733961230974  0.96827703979775  1.0000
  H   H19       1.0  0.8007059484509138  0.8536748495129366  0.1445117374740683  1.0000
  H   H20       1.0  0.7755514964285122  0.017637474224841743  0.04542658657362186  1.0000
  Zn  Zn1       1.0  0.9153678668248255  0.5679452713874986  0.5756649729866039  1.0000
  Zn  Zn2       1.0  0.10106009585694825  0.565869957506509  0.5762153552973148  1.0000
  C   C27       1.0  0.008249881634253095  0.5611628375084343  0.8130427154793929  1.0000
  C   C28       1.0  0.008180098110544876  0.5726541883229554  0.33883775193223586  1.0000
  C   C29       1.0  0.006666236161843476  0.8302971824660447  0.5715907569182579  1.0000
  C   C30       1.0  0.009763690398566057  0.3035181114406158  0.5802897741029795  1.0000
  O   O3        1.0  0.07863662743270261  0.57378882476781  0.38742322535441964  1.0000
  O   O4        1.0  0.0787294639134945  0.5584519979177687  0.7648745923652657  1.0000
  O   O5        1.0  0.07744970020753336  0.7757813957561814  0.5699004293889571  1.0000
  O   O6        1.0  0.07991632771388169  0.3564594379538598  0.5823972908312758  1.0000
  O   O7        1.0  0.9365115716002379  0.7773557916499209  0.5694830372580006  1.0000
  O   O8        1.0  0.9377913251229334  0.5600281264460103  0.7644571364300583  1.0000
  O   O9        1.0  0.937698488993853  0.5753649030411165  0.3870042083546732  1.0000
  O   O10       1.0  0.9389781893321606  0.35803550591247646  0.5819783711363395  1.0000
