data_image0
_chemical_formula_structural       NC5OC5NC4H8C9H10C6SCH7Zn2C4O8
_chemical_formula_sum              "N2 C34 O9 H25 S1 Zn2"
_cell_length_a       19.189071930511275
_cell_length_b       10.297183801781406
_cell_length_c       10.302812801239593
_cell_angle_alpha    85.53397989939683
_cell_angle_beta     89.97791177301549
_cell_angle_gamma    89.98878219536965

_space_group_name_H-M_alt    "P 1"
_space_group_IT_number       1

loop_
  _space_group_symop_operation_xyz
  'x, y, z'

loop_
  _atom_site_type_symbol
  _atom_site_label
  _atom_site_symmetry_multiplicity
  _atom_site_fract_x
  _atom_site_fract_y
  _atom_site_fract_z
  _atom_site_occupancy
  N   N1        1.0  0.6561857756975118  0.4215304382894779  0.5668375867653738  1.0000
  C   C1        1.0  0.6017278375629871  0.46766145980989204  0.5485306826339356  1.0000
  C   C2        1.0  0.5339891850562302  0.5250407633528478  0.5257596452921232  1.0000
  C   C3        1.0  0.5242913498381792  0.6219918461403691  0.42432944364979686  1.0000
  C   C4        1.0  0.45849056353989004  0.6778015642725406  0.4023358311226386  1.0000
  C   C5        1.0  0.40172884112175594  0.6365566346169051  0.48041760364844815  1.0000
  O   O1        1.0  0.3367569959018906  0.6959989580857606  0.4561581284242716  1.0000
  C   C6        1.0  0.27178780918489687  0.636367028842566  0.4798536553289989  1.0000
  C   C7        1.0  0.2150235320075284  0.7139778442848153  0.5100686134325334  1.0000
  C   C8        1.0  0.14922521265617067  0.6584536777588734  0.5329124991814328  1.0000
  C   C9        1.0  0.139532345673352  0.5245962054993525  0.5244361212613116  1.0000
  C   C10       1.0  0.0717961009652972  0.46741652042405923  0.5478013643279516  1.0000
  N   N2        1.0  0.017340150614899703  0.4214460424587383  0.5665864191213561  1.0000
  C   C11       1.0  0.1958233924433922  0.44667702786239083  0.49230450092626754  1.0000
  C   C12       1.0  0.26161285090717956  0.5022406462264757  0.4695042192407912  1.0000
  C   C13       1.0  0.4119088211387878  0.5405084392862054  0.5834652802945957  1.0000
  C   C14       1.0  0.4777006943350852  0.48469461548532106  0.6055202540183016  1.0000
  H   H1        1.0  0.5675392035970845  0.6545132899687207  0.36244226479085206  1.0000
  H   H2        1.0  0.4514539328427195  0.7528608086773481  0.3238560191011772  1.0000
  H   H3        1.0  0.22205627927982174  0.8175819164518872  0.5165953391151301  1.0000
  H   H4        1.0  0.1059752187108668  0.7198386104421043  0.5569808913071206  1.0000
  H   H5        1.0  0.188784124121776  0.343226155037881  0.48420333287262207  1.0000
  H   H6        1.0  0.304153738217844  0.4410644768442631  0.44202304587416985  1.0000
  H   H7        1.0  0.36936987077302297  0.5101649522280587  0.6478039453775226  1.0000
  H   H8        1.0  0.4847438487017106  0.41068350328489184  0.6850907351318323  1.0000
  C   C15       1.0  0.8367687479274754  0.040012696488335824  0.5668959480460103  1.0000
  C   C16       1.0  0.8347372208945272  0.049873155905036264  0.4302797416357697  1.0000
  C   C17       1.0  0.833696248996195  0.9383084702598706  0.36028726412329504  1.0000
  C   C18       1.0  0.8347290569867267  0.8147020649870443  0.4297502376507476  1.0000
  C   C19       1.0  0.8367638804383287  0.8029538242103258  0.5665392430928264  1.0000
  C   C20       1.0  0.837769781454574  0.9160852715809769  0.6342191713860623  1.0000
  C   C21       1.0  0.8314988162495726  0.9584054482348393  0.21252719034798903  1.0000
  C   C22       1.0  0.7906934315393109  0.859698066041813  0.14028405217369744  1.0000
  C   C23       1.0  0.870086037396825  0.8599877338631989  0.13610454861784493  1.0000
  H   H9        1.0  0.8375581775418042  0.36375159764217907  0.6195385497614696  1.0000
  H   H10       1.0  0.8339530857163904  0.14510220256485118  0.3775383485284629  1.0000
  H   H11       1.0  0.8339650064350375  0.7271025387473907  0.37847346400120707  1.0000
  H   H12       1.0  0.8393367979346954  0.907750277294503  0.73962144371692  1.0000
  H   H13       1.0  0.8405978318165748  0.5735482576481135  0.8248951641456963  1.0000
  H   H14       1.0  0.8307931625235915  0.05912117801766592  0.16503450465199987  1.0000
  H   H15       1.0  0.7674391545800785  0.7760659882591039  0.1993830521304709  1.0000
  H   H16       1.0  0.7661080094258151  0.9005767806561775  0.04844603834215187  1.0000
  H   H17       1.0  0.8950585050972666  0.7765324134404927  0.1926654023512115  1.0000
  H   H18       1.0  0.8919020994922778  0.901033379243764  0.04182260101411517  1.0000
  C   C24       1.0  0.8367663289716815  0.42148326597132435  0.18546914865018538  1.0000
  C   C25       1.0  0.8132637387048037  0.5510353089807829  0.17422765038155807  1.0000
  C   C26       1.0  0.8013899329499726  0.6153047560645571  0.05165886505049943  1.0000
  C   C27       1.0  0.8132636758807719  0.5510351726301275  0.9390764807997581  1.0000
  C   C28       1.0  0.8367662837700072  0.4214832572274999  0.9479660523152548  1.0000
  C   C29       1.0  0.8483812606422321  0.3573289844930587  0.07170211567722351  1.0000
  S   S1        1.0  0.7715050206366645  0.7809227981989701  0.03879089877158792  1.0000
  C   C30       1.0  0.6798395834703576  0.7355572836430648  0.042388007902284475  1.0000
  H   H19       1.0  0.8455974238151656  0.3726447331527192  0.5170199157146095  1.0000
  H   H20       1.0  0.8039275582706662  0.6024937503228145  0.2603291384781383  1.0000
  H   H21       1.0  0.8039274187510428  0.602493563226296  0.8449788256805641  1.0000
  H   H22       1.0  0.8664972134055391  0.25739114252162043  0.07946677547437964  1.0000
  H   H23       1.0  0.6674826741582895  0.6777701605573685  0.9587772975093712  1.0000
  H   H24       1.0  0.6674829726168869  0.6777714733336162  0.13501198872151288  1.0000
  H   H25       1.0  0.6475861280452156  0.8252289828728124  0.03543201676153496  1.0000
  Zn  Zn1       1.0  0.7604071357362597  0.42150261796667887  0.5667725985049792  1.0000
  Zn  Zn2       1.0  0.9131188080221856  0.42146327556904745  0.5666620273512948  1.0000
  C   C31       1.0  0.8367647725282115  0.4163081286791688  0.8038402443576813  1.0000
  C   C32       1.0  0.8367628388264567  0.42665940350471776  0.32959450695107395  1.0000
  C   C33       1.0  0.8367612039276737  0.6587417084997398  0.5614331549135656  1.0000
  C   C34       1.0  0.8367663553271528  0.1842242629586932  0.5720016663793334  1.0000
  O   O2        1.0  0.8947149513070236  0.42837596498496455  0.377922335271182  1.0000
  O   O3        1.0  0.8947172858113833  0.41456072723299225  0.7554281218205654  1.0000
  O   O4        1.0  0.8947136228832587  0.6103289091304206  0.5596826819582581  1.0000
  O   O5        1.0  0.8947185621249449  0.23260779239378299  0.573667677822963  1.0000
  O   O6        1.0  0.7788073295205015  0.6103581011567838  0.5597669480642138  1.0000
  O   O7        1.0  0.7788109924354686  0.41459147999964885  0.7555123179732804  1.0000
  O   O8        1.0  0.7788086579778323  0.42840667248302056  0.37800497053750587  1.0000
  O   O9        1.0  0.7788122687929581  0.23263849060043126  0.5737504104307164  1.0000
