data_image0
_chemical_formula_structural       NC9NC3OH6C7OCH10C12H9Zn2C4O8
_chemical_formula_sum              "N2 C36 O10 H25 Zn2"
_cell_length_a       15.78231758774541
_cell_length_b       10.30083208314754
_cell_length_c       10.299141136925906
_cell_angle_alpha    85.52453293780748
_cell_angle_beta     90.10591436666134
_cell_angle_gamma    89.62603918792362

_space_group_name_H-M_alt    "P 1"
_space_group_IT_number       1

loop_
  _space_group_symop_operation_xyz
  'x, y, z'

loop_
  _atom_site_type_symbol
  _atom_site_label
  _atom_site_symmetry_multiplicity
  _atom_site_fract_x
  _atom_site_fract_y
  _atom_site_fract_z
  _atom_site_occupancy
  N   N1        1.0  0.7974093243100421  0.41357243504827057  0.5693424839125845  1.0000
  C   C1        1.0  0.7488894319247335  0.3315087247785853  0.593451748247944  1.0000
  C   C2        1.0  0.6886501795756222  0.2296477128434471  0.6233775559605881  1.0000
  C   C3        1.0  0.7083316847612546  0.1016938904929594  0.660889778263084  1.0000
  C   C4        1.0  0.6316102921281301  0.03968243745838862  0.6791442254251429  1.0000
  C   C5        1.0  0.5698156485282493  0.13438289808189774  0.6514221705129994  1.0000
  C   C6        1.0  0.47672727725303893  0.1168742033784682  0.6566393267250228  1.0000
  C   C7        1.0  0.42296627307196016  0.22422909377367573  0.625047860618908  1.0000
  C   C8        1.0  0.3347619294055471  0.20987238177870937  0.6293329647798289  1.0000
  C   C9        1.0  0.2803039630455211  0.3203508208173274  0.5968140816356796  1.0000
  N   N2        1.0  0.2365326546409011  0.40916123252477415  0.5706718074726278  1.0000
  C   C10       1.0  0.2996373268823763  0.08800099609910726  0.6652585865300318  1.0000
  C   C11       1.0  0.3524673668205632  0.9808680576450176  0.6967890955355371  1.0000
  C   C12       1.0  0.44048610676018185  0.9948303681053615  0.6926204380852417  1.0000
  O   O1        1.0  0.606257465282996  0.24661528230778987  0.6184704668076824  1.0000
  H   H1        1.0  0.7707984582890025  0.05854328622202875  0.6734893924997702  1.0000
  H   H2        1.0  0.6228932254480368  0.937719373754459  0.7090519568173959  1.0000
  H   H3        1.0  0.44955767839662436  0.3190666427873112  0.5970866348728696  1.0000
  H   H4        1.0  0.2315228497265822  0.07584160772900783  0.6688857243597284  1.0000
  H   H5        1.0  0.3251455497602901  0.8866788672107199  0.7245595874530613  1.0000
  H   H6        1.0  0.47958511266323167  0.9099735337708549  0.7176030721169331  1.0000
  C   C13       1.0  0.016998721060800474  0.03002978514947175  0.5701435050904576  1.0000
  C   C14       1.0  0.9933790904205997  0.039718342736930534  0.4381946756294676  1.0000
  C   C15       1.0  0.9804970652563783  0.9274594836360827  0.372142359100094  1.0000
  C   C16       1.0  0.9933178377106952  0.8044601177693442  0.4378513369093697  1.0000
  C   C17       1.0  0.01695137333638109  0.7926938207760703  0.5698820528858207  1.0000
  C   C18       1.0  0.028454470342234008  0.9060197743532852  0.635327273272465  1.0000
  C   C19       1.0  0.9576537178697841  0.9389990188452902  0.23001149209391003  1.0000
  O   O2        1.0  0.03289264094994548  0.9441792072765982  0.15599321829193166  1.0000
  C   C20       1.0  0.012301394782308739  0.9550509418515839  0.022310854335990886  1.0000
  H   H7        1.0  0.027007593402507787  0.35373819898728137  0.6202957581362663  1.0000
  H   H8        1.0  0.9849216213113374  0.134502743167362  0.3862484041529312  1.0000
  H   H9        1.0  0.9848175485939561  0.7180975992344635  0.38566936109436417  1.0000
  H   H10       1.0  0.04667814960523573  0.8977846126768693  0.7370881310529079  1.0000
  H   H11       1.0  0.06246348197614249  0.5632688055712634  0.8185547483489195  1.0000
  H   H12       1.0  0.9186371321642027  0.028668104694866244  0.20818130210326125  1.0000
  H   H13       1.0  0.918671074969903  0.8535783790885427  0.20788360088225666  1.0000
  H   H14       1.0  0.07197836557996991  0.9590051605079343  0.9654454406016693  1.0000
  H   H15       1.0  0.9762035209377973  0.046329107553504834  0.9951175558714692  1.0000
  H   H16       1.0  0.9762181641125318  0.8688470338074802  0.9947957603315624  1.0000
  C   C21       1.0  0.016878716451255386  0.41147359747131507  0.1886194380814159  1.0000
  C   C22       1.0  0.10538331784836757  0.4245699008198791  0.18706731448685887  1.0000
  C   C23       1.0  0.15035784673058372  0.4310953862074051  0.06914694776137531  1.0000
  C   C24       1.0  0.10563146192719342  0.42434781591610804  0.9518024363124582  1.0000
  C   C25       1.0  0.01707137582783891  0.41125000644015763  0.9514061255779787  1.0000
  C   C26       1.0  0.9732403059380634  0.4048914055061432  0.07026212588583669  1.0000
  C   C27       1.0  0.24398680995116517  0.4449515932928829  0.06854972022703619  1.0000
  C   C28       1.0  0.2944179512796612  0.3734349640553283  0.9865033327517291  1.0000
  C   C29       1.0  0.3825395257186699  0.386638728595873  0.9861790481376942  1.0000
  C   C30       1.0  0.4212479287281663  0.4711806933192195  0.06742521952337799  1.0000
  C   C31       1.0  0.3719130503626955  0.5426949239249792  0.14923024180940492  1.0000
  C   C32       1.0  0.2837692521339419  0.5298169591464528  0.15002416399298713  1.0000
  H   H17       1.0  0.1396694909496644  0.4279324803710507  0.2779222233967173  1.0000
  H   H18       1.0  0.1398517900828028  0.43111489321094965  0.8604777572405572  1.0000
  H   H19       1.0  0.9049744595980167  0.39479353765501735  0.07074339808432482  1.0000
  H   H20       1.0  0.8498637308880709  0.3873529107698601  0.7433023636653653  1.0000
  H   H21       1.0  0.2658192450037917  0.3061304037708006  0.9239285529300831  1.0000
  H   H22       1.0  0.4208589394058624  0.33099836557384116  0.9230853665753878  1.0000
  H   H23       1.0  0.48946841758078197  0.48127502974767666  0.06699260423186582  1.0000
  H   H24       1.0  0.40196708325309705  0.6084521207754763  0.21189016332713062  1.0000
  H   H25       1.0  0.2466715896111349  0.5874000357968006  0.21301674903696988  1.0000
  Zn  Zn1       1.0  0.924130830320394  0.4122959864040118  0.5697335931124936  1.0000
  Zn  Zn2       1.0  0.10981112347749344  0.4104270794733096  0.5702913189051451  1.0000
  C   C33       1.0  0.017033368270904292  0.4061190470281557  0.8072248515603448  1.0000
  C   C34       1.0  0.016910613080423513  0.4166056368858948  0.33280019346050516  1.0000
  C   C35       1.0  0.016954632334849718  0.6485356467647934  0.5647559368507555  1.0000
  C   C36       1.0  0.016989285771173753  0.17418747759464062  0.5752691777577436  1.0000
  O   O3        1.0  0.08738602180460586  0.41761309048744377  0.38140022804720947  1.0000
  O   O4        1.0  0.08748500566986972  0.4036921567788143  0.759047744411266  1.0000
  O   O5        1.0  0.08742047584889168  0.5994466360075388  0.5632523769593083  1.0000
  O   O6        1.0  0.08745048824030816  0.2218586212144393  0.5771954979247664  1.0000
  O   O7        1.0  0.9464914021940057  0.6008644453020642  0.562829413895716  1.0000
  O   O8        1.0  0.9465559318967149  0.4051115262671381  0.7586247115628679  1.0000
  O   O9        1.0  0.9464569476962756  0.4190324151807243  0.3809756337138541  1.0000
  O   O10       1.0  0.946521414153681  0.22327793659118167  0.5767710009686551  1.0000
