data_image0
_chemical_formula_structural       NC5NC3OH4C6ClH5C7NH4Zn2C4O8
_chemical_formula_sum              "N3 C25 O9 H13 Cl1 Zn2"
_cell_length_a       13.84702359539666
_cell_length_b       10.30297070629231
_cell_length_c       9.275157849593905
_cell_angle_alpha    86.11098826397364
_cell_angle_beta     89.7265770318806
_cell_angle_gamma    89.99918224466363

_space_group_name_H-M_alt    "P 1"
_space_group_IT_number       1

loop_
  _space_group_symop_operation_xyz
  'x, y, z'

loop_
  _atom_site_type_symbol
  _atom_site_label
  _atom_site_symmetry_multiplicity
  _atom_site_fract_x
  _atom_site_fract_y
  _atom_site_fract_z
  _atom_site_occupancy
  N   N1        1.0  0.9141627573115555  0.4070888822741882  0.41004539505310267  1.0000
  C   C1        1.0  0.8418277788124716  0.3998308800377461  0.47309050929783214  1.0000
  C   C2        1.0  0.7517436447121864  0.39079313400436816  0.5515949603323536  1.0000
  C   C3        1.0  0.6643891365624873  0.39952416429050225  0.4757540253519792  1.0000
  C   C4        1.0  0.5763007689484982  0.39089457448670956  0.5507133960957843  1.0000
  C   C5        1.0  0.4866861469246676  0.3998838551678207  0.47263004240798234  1.0000
  N   N2        1.0  0.4146476013892251  0.40711054867467505  0.40985725106956816  1.0000
  C   C6        1.0  0.5755608749088761  0.3735079038475615  0.7017390246115058  1.0000
  C   C7        1.0  0.662534948515186  0.3647687116530921  0.7776479746141203  1.0000
  C   C8        1.0  0.7509372781050344  0.3733427004320286  0.7031731709564168  1.0000
  O   O1        1.0  0.837631322255474  0.36458860465009163  0.779213493146786  1.0000
  H   H1        1.0  0.6649669230290866  0.4129939668885223  0.3587523636540475  1.0000
  H   H2        1.0  0.5078275202149505  0.36671595448084127  0.7607354989103053  1.0000
  H   H3        1.0  0.6611795087676755  0.35132563214257534  0.8944182810204022  1.0000
  H   H4        1.0  0.8388325044875485  0.3520071254115524  0.8884987962079479  1.0000
  C   C9        1.0  0.16440975647633674  0.02585231725339332  0.4099575180506734  1.0000
  C   C10       1.0  0.26404580942587175  0.022954308156589717  0.4376778677793065  1.0000
  C   C11       1.0  0.3134825598762516  0.9045595486082088  0.4514318647102377  1.0000
  C   C12       1.0  0.26404580886011497  0.7878463388988326  0.43767780000304835  1.0000
  C   C13       1.0  0.16440976653281836  0.7883372597820096  0.40995760054363206  1.0000
  C   C14       1.0  0.11507742092286288  0.9079338071098694  0.3962325182283801  1.0000
  Cl  Cl1       1.0  0.4379517291998083  0.9024427608580831  0.48606108668882464  1.0000
  H   H5        1.0  0.12687860283628338  0.35424705785026894  0.39951494097880724  1.0000
  H   H6        1.0  0.303673489499255  0.11232696294477384  0.4487028008256029  1.0000
  H   H7        1.0  0.30367345162195225  0.6971257692170261  0.4487026973000776  1.0000
  H   H8        1.0  0.03823507336666055  0.9092405121511643  0.37485370686346053  1.0000
  H   H9        1.0  0.12687859730284434  0.4612190935336637  0.39951521306855176  1.0000
  C   C15       1.0  0.16569120237172502  0.4034250853563348  0.9867592811637356  1.0000
  C   C16       1.0  0.24892893107761727  0.44575219897180274  0.05642401774218508  1.0000
  C   C17       1.0  0.3272127510871685  0.49828786502051176  0.9765164200388861  1.0000
  C   C18       1.0  0.323171457120623  0.5093316115911428  0.8258589928930302  1.0000
  C   C19       1.0  0.24191921166972752  0.4659532834836552  0.7548519678762764  1.0000
  C   C20       1.0  0.16312836798592434  0.4107644217046831  0.8331558156408412  1.0000
  C   C21       1.0  0.4113970029020587  0.5424230344438234  0.049488392937573775  1.0000
  N   N3        1.0  0.47905958575921614  0.5778958100218283  0.10814555178219387  1.0000
  H   H10       1.0  0.9307192921355405  0.359641119264634  0.0946852374653635  1.0000
  H   H11       1.0  0.38330723387650006  0.5504005166729962  0.7630135870748904  1.0000
  H   H12       1.0  0.24170557060015097  0.4727788745661897  0.6377876087201413  1.0000
  H   H13       1.0  0.005935138681163466  0.3758343208365307  0.5558084166567534  1.0000
  Zn  Zn1       1.0  0.05859184535650752  0.40709173121370423  0.40999941049552313  1.0000
  Zn  Zn2       1.0  0.2702184536706449  0.4070971787836841  0.4099149969044158  1.0000
  C   C22       1.0  0.1636106208262167  0.4042051262847412  0.6731687228032812  1.0000
  C   C23       1.0  0.16520198872868663  0.4099854230963249  0.14674582512216583  1.0000
  C   C24       1.0  0.16442219954504655  0.6441615476532319  0.40421474924581435  1.0000
  C   C25       1.0  0.16439033756377655  0.17002744258661878  0.41569987554124266  1.0000
  O   O2        1.0  0.24534899911470975  0.4121835357589185  0.20040673625161687  1.0000
  O   O3        1.0  0.24408331070034484  0.40201016519397226  0.6194433288610914  1.0000
  O   O4        1.0  0.24473758360890277  0.5957780230781993  0.402261092751353  1.0000
  O   O5        1.0  0.24469465431951348  0.2184156862231179  0.4175888643352359  1.0000
  O   O6        1.0  0.08411557248988699  0.5957732237737594  0.4023255430859287  1.0000
  O   O7        1.0  0.08346129980965733  0.40200692503023666  0.6195077023552833  1.0000
  O   O8        1.0  0.08472699353468262  0.4121802353292094  0.2004693770874144  1.0000
  O   O9        1.0  0.08407264840837292  0.21841237744447106  0.4176516132183792  1.0000
