data_image0
_chemical_formula_structural       NC5NC3OH4C9H10C6SCH7Zn2C4O8
_chemical_formula_sum              "N2 C28 O9 H21 S1 Zn2"
_cell_length_a       13.84702359539666
_cell_length_b       10.297183801781406
_cell_length_c       10.302812801239593
_cell_angle_alpha    85.53397989939683
_cell_angle_beta     89.9855797555544
_cell_angle_gamma    89.99848952151973

_space_group_name_H-M_alt    "P 1"
_space_group_IT_number       1

loop_
  _space_group_symop_operation_xyz
  'x, y, z'

loop_
  _atom_site_type_symbol
  _atom_site_label
  _atom_site_symmetry_multiplicity
  _atom_site_fract_x
  _atom_site_fract_y
  _atom_site_fract_z
  _atom_site_occupancy
  N   N1        1.0  0.9093358765685106  0.4217260571253032  0.5669859250719202  1.0000
  C   C1        1.0  0.8371918618489169  0.4139167000092996  0.6237853040748256  1.0000
  C   C2        1.0  0.7473455178907893  0.4041924009763227  0.69451249873947  1.0000
  C   C3        1.0  0.6597612873952113  0.4135866906943213  0.6261849517247544  1.0000
  C   C4        1.0  0.571899971867666  0.4043015510633396  0.6937182690778583  1.0000
  C   C5        1.0  0.48204883520628306  0.4139737020861953  0.6233704546030276  1.0000
  N   N2        1.0  0.40982015075761286  0.4217493689244968  0.5668164200793719  1.0000
  C   C6        1.0  0.5716175347645455  0.3855941005605905  0.8297821340754202  1.0000
  C   C7        1.0  0.6588215367373302  0.37619105391703683  0.8981709581749188  1.0000
  C   C8        1.0  0.7469982819937847  0.38541635489935255  0.8310742028690296  1.0000
  O   O1        1.0  0.8339226524353593  0.3759972558976441  0.8995813843110243  1.0000
  H   H1        1.0  0.6599846755891801  0.428079719945319  0.5207743769387154  1.0000
  H   H2        1.0  0.5040628805118442  0.37828620327347057  0.8829339626497843  1.0000
  H   H3        1.0  0.6578197944860118  0.3617267711015988  0.003373097467359703  1.0000
  H   H4        1.0  0.8354548600741603  0.36246003265722476  0.9980400424646413  1.0000
  C   C9        1.0  0.1595860060711325  0.04026214982058863  0.5670851092007256  1.0000
  C   C10       1.0  0.15677073563447208  0.05012200360856635  0.43046844354054303  1.0000
  C   C11       1.0  0.15532816688532924  0.938557007634042  0.36047573070445393  1.0000
  C   C12       1.0  0.15675942217031152  0.8149509102567907  0.4299389377099756  1.0000
  C   C13       1.0  0.15957926075193551  0.8032032760915068  0.5667284031471906  1.0000
  C   C14       1.0  0.16097322861321106  0.9163350233363601  0.6344085588358661  1.0000
  C   C15       1.0  0.15228298592156017  0.9586533305213031  0.21271516017431932  1.0000
  C   C16       1.0  0.09573527999974507  0.8599337836301861  0.14046279747567803  1.0000
  C   C17       1.0  0.20575678231554823  0.8602471195798772  0.13630124152725842  1.0000
  H   H5        1.0  0.16067998996551358  0.3640012863152571  0.6197278893757869  1.0000
  H   H6        1.0  0.15568408871835882  0.14535081650590675  0.37772687317050235  1.0000
  H   H7        1.0  0.15570060833451294  0.7273511562421914  0.3786619913380618  1.0000
  H   H8        1.0  0.16314478483604145  0.9080004962010352  0.7398111854087388  1.0000
  H   H9        1.0  0.16489231334523918  0.5737988524877871  0.8250851909086604  1.0000
  H   H10       1.0  0.15130509783980964  0.05936884993815483  0.16522231495722695  1.0000
  H   H11       1.0  0.06350972878261762  0.7762947733982304  0.1995565405369324  1.0000
  H   H12       1.0  0.061665040752912674  0.9008051689609391  0.048619225828012036  1.0000
  H   H13       1.0  0.240363385578658  0.7767992438248856  0.19286774057283074  1.0000
  H   H14       1.0  0.2359892693391417  0.9012992686562361  0.042024225694113675  1.0000
  C   C18       1.0  0.15958265390568083  0.42173271858244954  0.18565830925806837  1.0000
  C   C19       1.0  0.12701299251787646  0.5512777551167347  0.1744114979598561  1.0000
  C   C20       1.0  0.1105583877943952  0.6155436624406654  0.05184002841907654  1.0000
  C   C21       1.0  0.12701290545694355  0.5512776187473505  0.9392603283638534  1.0000
  C   C22       1.0  0.15958259126563945  0.4217327098251502  0.9481552129129196  1.0000
  C   C23       1.0  0.17567851343676688  0.3575818996897746  0.0718939019733773  1.0000
  S   S1        1.0  0.06914416648533339  0.7811527954338384  0.03896530631361639  1.0000
  C   C24       1.0  0.9421150937078032  0.7357599540342736  0.042541693422864846  1.0000
  H   H15       1.0  0.17182069939214917  0.37289681844586303  0.5172110726925796  1.0000
  H   H16       1.0  0.1140750043241312  0.6027334132031463  0.26051087550596974  1.0000
  H   H17       1.0  0.11407481097919181  0.6027332260650351  0.8451605626768548  1.0000
  H   H18       1.0  0.20078342487497117  0.25764945835596187  0.07966265708904507  1.0000
  H   H19       1.0  0.9249910087655128  0.6779691471683074  0.9589281896091416  1.0000
  H   H20       1.0  0.9249914223665389  0.6779704600335301  0.13516288088875306  1.0000
  H   H21       1.0  0.8974185683522993  0.825422038024504  0.0355784110192825  1.0000
  Zn  Zn1       1.0  0.05376482534792637  0.42172930675536513  0.566944497243079  1.0000
  Zn  Zn2       1.0  0.2653911780111702  0.4217354900010129  0.566868448311143  1.0000
  C   C25       1.0  0.15958049700143273  0.4165575808262953  0.8040294046137126  1.0000
  C   C26       1.0  0.15957781729631695  0.4269088550753788  0.3297836667699694  1.0000
  C   C27       1.0  0.15957555166945814  0.6589911595830127  0.561622314362874  1.0000
  C   C28       1.0  0.15958269042883755  0.18447371557767545  0.5721908269931746  1.0000
  O   O2        1.0  0.23988729207195728  0.428642692950812  0.37812459582853375  1.0000
  O   O3        1.0  0.23989052720543125  0.41482745589479103  0.755630382905659  1.0000
  O   O4        1.0  0.239885451155202  0.610595636700246  0.5598849422153045  1.0000
  O   O5        1.0  0.2398922959083729  0.23287452143607013  0.5738699391965816  1.0000
  O   O6        1.0  0.07926363523303602  0.6105902753196125  0.5599430063767621  1.0000
  O   O7        1.0  0.07926871126503165  0.414823655254448  0.7556883771138727  1.0000
  O   O8        1.0  0.0792654761963063  0.4286388470418825  0.3781810291503669  1.0000
  O   O9        1.0  0.07927048002884729  0.23287066623573224  0.5739264698598436  1.0000
