data_image0
_chemical_formula_structural       NC5NC3F3CH3C9H8C7ONH5Zn2C4O8
_chemical_formula_sum              "N3 C29 F3 H16 O9 Zn2"
_cell_length_a       13.85151926108384
_cell_length_b       9.275152443626249
_cell_length_c       9.273042158839658
_cell_angle_alpha    85.96394158152518
_cell_angle_beta     90.09323963097282
_cell_angle_gamma    90.57354708821606

_space_group_name_H-M_alt    "P 1"
_space_group_IT_number       1

loop_
  _space_group_symop_operation_xyz
  'x, y, z'

loop_
  _atom_site_type_symbol
  _atom_site_label
  _atom_site_symmetry_multiplicity
  _atom_site_fract_x
  _atom_site_fract_y
  _atom_site_fract_z
  _atom_site_occupancy
  N   N1        1.0  0.9178139501938196  0.5619896711267531  0.4047342023428093  1.0000
  C   C1        1.0  0.845496041842252  0.553565039771686  0.46722071206021254  1.0000
  C   C2        1.0  0.7555268769191898  0.5430836469473428  0.5449628691048709  1.0000
  C   C3        1.0  0.6679750147749373  0.5515122972000505  0.4694201746217121  1.0000
  C   C4        1.0  0.5804748873039612  0.543083633586727  0.544962849095379  1.0000
  C   C5        1.0  0.49047678994029437  0.5535650569166306  0.4672208060547709  1.0000
  N   N2        1.0  0.4181357644489705  0.561989634337785  0.40473430790707576  1.0000
  C   C6        1.0  0.5805108760867783  0.5252299187667371  0.6962276733929247  1.0000
  C   C7        1.0  0.6680519013450755  0.5136238496476573  0.7730432458739063  1.0000
  C   C8        1.0  0.6681366329275852  0.49975913795772  0.9360882285186823  1.0000
  F   F1        1.0  0.7486295551559975  0.4254666258895356  0.9879386041654179  1.0000
  F   F2        1.0  0.5867607404054002  0.4254665963271149  0.9879387035495254  1.0000
  F   F3        1.0  0.6691067028292292  0.6361565776266204  0.9873298987874526  1.0000
  C   C9        1.0  0.7555812023121569  0.5252298236928747  0.6962276933347089  1.0000
  H   H1        1.0  0.6679411401563198  0.5654955221947955  0.35230503022499104  1.0000
  H   H2        1.0  0.5124197988551947  0.52065759876515  0.7538870771777382  1.0000
  H   H3        1.0  0.8237365517847034  0.5206575174109418  0.7538870364232555  1.0000
  C   C10       1.0  0.16513326046535037  0.1383728740646051  0.4062057176397904  1.0000
  C   C11       1.0  0.13016455360838464  0.21982246088891744  0.2837575796868766  1.0000
  C   C12       1.0  0.10416711961918179  0.15306715325357034  0.15901690819006054  1.0000
  C   C13       1.0  0.11272959030083096  0.0036750493707542456  0.15425454617758816  1.0000
  C   C14       1.0  0.14580924685609142  0.9205264151482601  0.2756678385506821  1.0000
  C   C15       1.0  0.17082562804040954  0.985595523981537  0.4032752090772358  1.0000
  C   C16       1.0  0.08642373811783122  0.9351648503281154  0.02507773577391492  1.0000
  C   C17       1.0  0.06439872244200795  0.8777701314350618  0.9169124105487545  1.0000
  C   C18       1.0  0.03767571668978453  0.8081197904996049  0.7856727584474089  1.0000
  H   H4        1.0  0.3041889949217589  0.22305640862581222  0.6940563229589078  1.0000
  H   H5        1.0  0.12507853547867054  0.3363351712969962  0.2833042048552914  1.0000
  H   H6        1.0  0.07824701235230758  0.21832363334546434  0.06566900961296795  1.0000
  H   H7        1.0  0.1498692845769485  0.8041740320706778  0.2716470591093674  1.0000
  H   H8        1.0  0.26135645832528165  0.6923699700252699  0.6001553582662089  1.0000
  H   H9        1.0  0.055340114317497635  0.6915397967823523  0.7991378927100414  1.0000
  H   H10       1.0  0.9590767977439453  0.8204945118533004  0.7659410382635616  1.0000
  H   H11       1.0  0.0783374118946798  0.8594855930021419  0.6923774973761172  1.0000
  C   C19       1.0  0.16748784165452912  0.5575258721612268  0.9814909972535837  1.0000
  C   C20       1.0  0.07887873577354787  0.5667118835760119  0.05414002236364147  1.0000
  C   C21       1.0  0.9921067432689321  0.589851243828637  0.9778038150799206  1.0000
  C   C22       1.0  0.9944673768279969  0.6020621939657793  0.8262628782278778  1.0000
  C   C23       1.0  0.08148180403846261  0.5907582219050265  0.7526117481670469  1.0000
  C   C24       1.0  0.1684710681555467  0.5664424540699906  0.8279899943064961  1.0000
  C   C25       1.0  0.8999204590442111  0.5998098047889207  0.05762938061127976  1.0000
  O   O1        1.0  0.8930957265178098  0.5439859425877842  0.18519309203420112  1.0000
  N   N3        1.0  0.818293337014776  0.6729942153666051  0.993839771411257  1.0000
  H   H12       1.0  0.4020861474146894  0.6126270648702437  0.08126048549891986  1.0000
  H   H13       1.0  0.928912509360474  0.6163251517763135  0.7635904045664978  1.0000
  H   H14       1.0  0.32655276437546776  0.5968627253586105  0.5449630047736695  1.0000
  H   H15       1.0  0.8233611714446126  0.7352874363286315  0.895958476369501  1.0000
  H   H16       1.0  0.7530405557223844  0.6728318482253672  0.050082788047572054  1.0000
  Zn  Zn1       1.0  0.062196002193994904  0.5619858969408493  0.40474255369513723  1.0000
  Zn  Zn2       1.0  0.27375362958687277  0.5619817660516069  0.40473774896363623  1.0000
  C   C26       1.0  0.16824442663234335  0.5590102423318122  0.6680034123524807  1.0000
  C   C27       1.0  0.16770752774482633  0.564959242251037  0.14147702542245377  1.0000
  C   C28       1.0  0.1697380029789187  0.8253918817696836  0.39808567638675973  1.0000
  C   C29       1.0  0.16621386765288354  0.2985758704715491  0.4113948442268127  1.0000
  O   O2        1.0  0.2480662311730084  0.5674460881163106  0.1951679963640909  1.0000
  O   O3        1.0  0.2484530594913455  0.556519168590945  0.6143083835945258  1.0000
  O   O4        1.0  0.24965806074031494  0.7716257271001166  0.3963478969258294  1.0000
  O   O5        1.0  0.24686115767756614  0.35233953878960134  0.4131283749307282  1.0000
  O   O6        1.0  0.08908840190906812  0.771628124205755  0.39635192772209754  1.0000
  O   O7        1.0  0.08788341221123265  0.5565232980410999  0.6143123315462097  1.0000
  O   O8        1.0  0.08749658160664775  0.5674501490438435  0.19517021162152928  1.0000
  O   O9        1.0  0.08629150816344455  0.3523435905375716  0.4131306982842793  1.0000
