data_image0
_chemical_formula_structural       NC9NC3SH6C6NCOCH7C8H6Zn2C4O8
_chemical_formula_sum              "N3 C32 S1 H19 O9 Zn2"
_cell_length_a       16.77567553997237
_cell_length_b       10.300268703208216
_cell_length_c       9.275144076552241
_cell_angle_alpha    85.95897192473107
_cell_angle_beta     90.85075607413872
_cell_angle_gamma    90.87327597949842

_space_group_name_H-M_alt    "P 1"
_space_group_IT_number       1

loop_
  _space_group_symop_operation_xyz
  'x, y, z'

loop_
  _atom_site_type_symbol
  _atom_site_label
  _atom_site_symmetry_multiplicity
  _atom_site_fract_x
  _atom_site_fract_y
  _atom_site_fract_z
  _atom_site_occupancy
  N   N1        1.0  0.7433773221831004  0.429640856981363  0.417790905229948  1.0000
  C   C1        1.0  0.6888244297720155  0.4792641499006127  0.4639730092279559  1.0000
  C   C2        1.0  0.6211234758305983  0.5408433724289015  0.5212814669536088  1.0000
  C   C3        1.0  0.6237110561994427  0.6296094164311006  0.6268028157294385  1.0000
  C   C4        1.0  0.5482212013005805  0.6733061978436335  0.6617867278194403  1.0000
  C   C5        1.0  0.4858790300490304  0.6187572660589628  0.5833981014039391  1.0000
  C   C6        1.0  0.3994369628239747  0.6448984902065027  0.5954464489643019  1.0000
  C   C7        1.0  0.342347484660074  0.5648966713192982  0.5307374953944055  1.0000
  C   C8        1.0  0.2607502815831235  0.5890199640320073  0.5416127255770042  1.0000
  C   C9        1.0  0.2029869504084279  0.5063396868324996  0.4753545861987169  1.0000
  N   N2        1.0  0.15656229685864667  0.4398765942157845  0.42209283173486867  1.0000
  C   C10       1.0  0.23541187329533234  0.6934574467365482  0.6170181145754488  1.0000
  C   C11       1.0  0.2914073885128488  0.7736147562396068  0.681214721736864  1.0000
  C   C12       1.0  0.3728483225995398  0.7498568064771916  0.6706665410618671  1.0000
  S   S1        1.0  0.5259837447327954  0.5159501563926704  0.4711524886784757  1.0000
  H   H1        1.0  0.6783340641658386  0.6617969104007771  0.6776098697878641  1.0000
  H   H2        1.0  0.5403062385654924  0.741730101234516  0.7433624668264289  1.0000
  H   H3        1.0  0.3609011320856472  0.4832264614383416  0.4725083658499425  1.0000
  H   H4        1.0  0.1724639324810451  0.712973400780412  0.6259985528257832  1.0000
  H   H5        1.0  0.2716716385963479  0.8546711894182367  0.7390913662025933  1.0000
  H   H6        1.0  0.4144974608704822  0.814815236844207  0.7203578590506123  1.0000
  C   C13       1.0  0.9500546598628379  0.053413247769713346  0.41995128697742823  1.0000
  C   C14       1.0  0.9628311039910676  0.06217533653210716  0.270249552314183  1.0000
  C   C15       1.0  0.9703581046185995  0.949319084684705  0.1951339948904658  1.0000
  C   C16       1.0  0.9626509022972286  0.8270115792845232  0.2702836353036471  1.0000
  C   C17       1.0  0.9498926318315885  0.8160945254606465  0.41994501471793866  1.0000
  C   C18       1.0  0.9439623921833014  0.9299027942863187  0.4940794214729614  1.0000
  N   N3        1.0  0.9821959667623629  0.9566666017837778  0.041490626967806365  1.0000
  C   C19       1.0  0.028657159513826302  0.056439088987811026  0.9645233755509502  1.0000
  O   O1        1.0  0.07397001834668249  0.13097484592584463  0.03155659007784073  1.0000
  C   C20       1.0  0.027973974159987147  0.06629461097113376  0.8030472077534463  1.0000
  H   H7        1.0  0.9653476232817457  0.15671884682839954  0.2116370165223096  1.0000
  H   H8        1.0  0.9673383545313996  0.7403951114565909  0.21133003135424033  1.0000
  H   H9        1.0  0.9341300589229897  0.9223361207462052  0.6095463887660986  1.0000
  H   H10       1.0  0.9599787425773362  0.8803286541289234  0.9833436797190078  1.0000
  H   H11       1.0  0.9667732170781251  0.047486924545528296  0.7615443971925049  1.0000
  H   H12       1.0  0.04755349929018293  0.16517576791993044  0.7612211512764251  1.0000
  H   H13       1.0  0.06894936750348803  0.9933351159999089  0.7637953364855266  1.0000
  C   C21       1.0  0.9480962580567315  0.4320499857842915  0.9966431272051383  1.0000
  C   C22       1.0  0.8960954549207276  0.5154529447455851  0.062074928586704825  1.0000
  C   C23       1.0  0.8504907011961151  0.6054485648797598  0.9786643947219131  1.0000
  C   C24       1.0  0.8560618247890303  0.6138850985534612  0.8282918707623925  1.0000
  C   C25       1.0  0.9064074705531324  0.5303459042785873  0.7610870042071332  1.0000
  C   C26       1.0  0.9518510479739974  0.4374578000292307  0.8432532345816117  1.0000
  C   C27       1.0  0.8092983356292585  0.7074218139360338  0.74249933662399  1.0000
  C   C28       1.0  0.770148053061655  0.7857340711334189  0.6706547378017742  1.0000
  H   H14       1.0  0.11387629138034261  0.265685184831094  0.11697423674026262  1.0000
  H   H15       1.0  0.8921079086855269  0.513171148757332  0.1787035481091721  1.0000
  H   H16       1.0  0.8114152235253373  0.6694116466307282  0.03169555305364225  1.0000
  H   H17       1.0  0.9086920512453196  0.5357986445429442  0.6440261472657021  1.0000
  H   H18       1.0  0.06174331508239873  0.3212785837092454  0.5745839542303823  1.0000
  H   H19       1.0  0.7357822320087822  0.8544755207579708  0.6075886183680654  1.0000
  Zn  Zn1       1.0  0.8626136211563055  0.43259125573606316  0.4190406814439036  1.0000
  Zn  Zn2       1.0  0.037326047672757275  0.43691567737174664  0.4208548934807834  1.0000
  C   C29       1.0  0.951140630886912  0.43126217240858966  0.683225783570039  1.0000
  C   C30       1.0  0.9488009460758383  0.43824644734498985  0.15666995263527106  1.0000
  C   C31       1.0  0.9498936896859159  0.67189471776503  0.41420192578949977  1.0000
  C   C32       1.0  0.9500478283319718  0.19761234079655715  0.4256938866617992  1.0000
  O   O2        1.0  0.01533990235747007  0.4419614665286402  0.21106490117235444  1.0000
  O   O3        1.0  0.01720436212864507  0.43082830687290896  0.6302073650440554  1.0000
  O   O4        1.0  0.016196554197930313  0.6251421179135138  0.4129686872055376  1.0000
  O   O5        1.0  0.01634765018934137  0.24764766261167548  0.42830347030953964  1.0000
  O   O6        1.0  0.8835919590189105  0.6218592690217869  0.4115921039884629  1.0000
  O   O7        1.0  0.8845997662736775  0.4275470176988263  0.628830704954308  1.0000
  O   O8        1.0  0.8827352988787116  0.4386801210324034  0.20968650798798616  1.0000
  O   O9        1.0  0.8837430471886161  0.24436630851745061  0.4269251851998206  1.0000
