data_image0
_chemical_formula_structural       NC5OC5NC4H8C6NH7C6NH7Zn2C4O8
_chemical_formula_sum              "N4 C30 O9 H22 Zn2"
_cell_length_a       19.189071930511275
_cell_length_b       9.274771166103582
_cell_length_c       9.274774538082514
_cell_angle_alpha    84.9550519661537
_cell_angle_beta     90.32765294797488
_cell_angle_gamma    90.58817672672019

_space_group_name_H-M_alt    "P 1"
_space_group_IT_number       1

loop_
  _space_group_symop_operation_xyz
  'x, y, z'

loop_
  _atom_site_type_symbol
  _atom_site_label
  _atom_site_symmetry_multiplicity
  _atom_site_fract_x
  _atom_site_fract_y
  _atom_site_fract_z
  _atom_site_occupancy
  N   N1        1.0  0.6595296833917129  0.5923771868570449  0.40462195574594806  1.0000
  C   C1        1.0  0.6052713975312136  0.6437795322325528  0.38420013386603924  1.0000
  C   C2        1.0  0.537781078216431  0.7077154871391069  0.35879845785630193  1.0000
  C   C3        1.0  0.5282993927674673  0.8163543148502479  0.24589325150076324  1.0000
  C   C4        1.0  0.4627406460097666  0.878539834473781  0.22135821685263668  1.0000
  C   C5        1.0  0.4059998540660477  0.8319846369194099  0.3082224392259867  1.0000
  O   O1        1.0  0.3412831063262597  0.8982258317515966  0.28116295537333924  1.0000
  C   C6        1.0  0.2760559358974011  0.8317795513146751  0.30759580544634013  1.0000
  C   C7        1.0  0.219824729461624  0.9176683386079654  0.3410660638624079  1.0000
  C   C8        1.0  0.1537887203896909  0.8557916744424275  0.3665458840171749  1.0000
  C   C9        1.0  0.14331746755736902  0.7072346468671752  0.35732781736531005  1.0000
  C   C10       1.0  0.0753359298448266  0.6435146031057895  0.38338974805557635  1.0000
  N   N2        1.0  0.0206827731359569  0.5922859021925599  0.4043428695824791  1.0000
  C   C11       1.0  0.19906751962212654  0.6210219951769145  0.3217273365666782  1.0000
  C   C12       1.0  0.2650950300588078  0.6829420457588713  0.29629592932611337  1.0000
  C   C13       1.0  0.4159739769393536  0.7243327465528344  0.4229243608591615  1.0000
  C   C14       1.0  0.48152398585689027  0.6621420740233626  0.4475276151412697  1.0000
  H   H1        1.0  0.5715297086656201  0.8530659787723625  0.17704541044701094  1.0000
  H   H2        1.0  0.45587151021189454  0.9626472404245153  0.13399975532889075  1.0000
  H   H3        1.0  0.22745982849551527  0.03265001761538411  0.34816306336194214  1.0000
  H   H4        1.0  0.1109609001785459  0.9237222767688907  0.3932080273338414  1.0000
  H   H5        1.0  0.19142167104367352  0.506225670525531  0.31287984355901943  1.0000
  H   H6        1.0  0.3072038860576981  0.6152762891020565  0.265839582816642  1.0000
  H   H7        1.0  0.37347270591298265  0.6900158208180862  0.4944941103299627  1.0000
  H   H8        1.0  0.4884090503919903  0.5791879876845127  0.5360969357626071  1.0000
  C   C15       1.0  0.8379723787113226  0.16872870392449446  0.4052707257121184  1.0000
  C   C16       1.0  0.8215612622476579  0.25316512870848196  0.27621844664798356  1.0000
  C   C17       1.0  0.811654224032603  0.18924890143673156  0.14634227990654258  1.0000
  C   C18       1.0  0.8181921016218271  0.039526957282021824  0.14457760544409703  1.0000
  C   C19       1.0  0.8333094239558911  0.9537868652558071  0.271857909149533  1.0000
  C   C20       1.0  0.8422467586173232  0.015923249886883095  0.40370660942874803  1.0000
  N   N3        1.0  0.7956671400521165  0.2767970652856611  0.015871174428020222  1.0000
  H   H9        1.0  0.9173179374756276  0.24561935677085842  0.7210710749325098  1.0000
  H   H10       1.0  0.818045920312632  0.3697635510130308  0.27566676620739927  1.0000
  H   H11       1.0  0.8108994631123333  0.9889115023529685  0.044650743480512345  1.0000
  H   H12       1.0  0.8363685402565487  0.8376580591072267  0.26772211525641687  1.0000
  H   H13       1.0  0.8928709449205736  0.7169734347144922  0.6185652573792606  1.0000
  H   H14       1.0  0.7908656203148049  0.3888725876495487  0.015828008281196567  1.0000
  H   H15       1.0  0.7884470058996791  0.23017813800745593  0.9183177721567918  1.0000
  C   C21       1.0  0.8388775329947484  0.5960157107670394  0.9806664925675697  1.0000
  C   C22       1.0  0.8886862501198549  0.6811285555777824  0.04720767471080256  1.0000
  C   C23       1.0  0.9415614085012183  0.7543580486299073  0.966266952774165  1.0000
  C   C24       1.0  0.9450547744665643  0.74280677177084  0.817308117822459  1.0000
  C   C25       1.0  0.895485668375484  0.6608715780170866  0.7490583334226053  1.0000
  C   C26       1.0  0.8413415873215632  0.5886361670398446  0.8283108092980851  1.0000
  N   N4        1.0  0.9921691306892162  0.8392700065690155  0.035813132290245075  1.0000
  H   H16       1.0  0.7332890345711631  0.314056426992702  0.10718793270028537  1.0000
  H   H17       1.0  0.8874663581104341  0.6879703090568894  0.16321614239232152  1.0000
  H   H18       1.0  0.9858742516426394  0.7985293839556656  0.7536431191649378  1.0000
  H   H19       1.0  0.8985729260548209  0.6568582785016619  0.6328902904422025  1.0000
  H   H20       1.0  0.768105943351205  0.403118636775567  0.5626274536045957  1.0000
  H   H21       1.0  0.9901911202189132  0.8483164543815576  0.14716791790941808  1.0000
  H   H22       1.0  0.031977040687446  0.8938585083981428  0.9764396899847245  1.0000
  Zn  Zn1       1.0  0.7637506773298839  0.59234692335644  0.40454975287784833  1.0000
  Zn  Zn2       1.0  0.9164617715651066  0.5923043065771074  0.4044268945464522  1.0000
  C   C27       1.0  0.8408452842379743  0.5842844637727449  0.6680984960438583  1.0000
  C   C28       1.0  0.8393688418521179  0.6003685845471873  0.14087828833423854  1.0000
  C   C29       1.0  0.8414184956346492  0.8558354872698737  0.3982509769109861  1.0000
  C   C30       1.0  0.8387955698254768  0.328815827299769  0.41072588765492846  1.0000
  O   O2        1.0  0.8974867622433933  0.6018069827243269  0.19460021806876826  1.0000
  O   O3        1.0  0.8986315441788941  0.5828126358433738  0.6142829062258433  1.0000
  O   O4        1.0  0.8990936427583973  0.8020935087017718  0.39637912316939383  1.0000
  O   O5        1.0  0.8970246112914277  0.3825261211416211  0.4125038929338627  1.0000
  O   O6        1.0  0.7831877854907469  0.8021251088081065  0.3964727545247684  1.0000
  O   O7        1.0  0.7827256954283941  0.5828459697161774  0.6143764574277306  1.0000
  O   O8        1.0  0.7815809082414454  0.6018402814359627  0.19469203415065728  1.0000
  O   O9        1.0  0.7811187575491263  0.38255940859374427  0.4125958172414377  1.0000
