data_image0
_chemical_formula_structural       NC16NOH10C6H6C12H10Zn2C4O8
_chemical_formula_sum              "N2 C38 O9 H26 Zn2"
_cell_length_a       21.30360265646646
_cell_length_b       10.681118228259551
_cell_length_c       13.024585202197207
_cell_angle_alpha    85.80459198147678
_cell_angle_beta     93.57028129254516
_cell_angle_gamma    90.62955122351131

_space_group_name_H-M_alt    "P 1"
_space_group_IT_number       1

loop_
  _space_group_symop_operation_xyz
  'x, y, z'

loop_
  _atom_site_type_symbol
  _atom_site_label
  _atom_site_symmetry_multiplicity
  _atom_site_fract_x
  _atom_site_fract_y
  _atom_site_fract_z
  _atom_site_occupancy
  N   N1        1.0  0.5424748080426244  0.3774581994396755  0.857495924612513  1.0000
  C   C1        1.0  0.4882180078224423  0.37073252409595164  0.8473168229868736  1.0000
  C   C2        1.0  0.4207271894354636  0.362366818371374  0.8346549151384142  1.0000
  C   C3        1.0  0.38755839311430945  0.4441770175074826  0.7625071461285611  1.0000
  C   C4        1.0  0.32199992417150397  0.43620530058089013  0.7500760612809882  1.0000
  C   C5        1.0  0.2885792095650708  0.346132916952138  0.8100091678650219  1.0000
  C   C6        1.0  0.3225642174663738  0.2639735905777967  0.8820229704814331  1.0000
  C   C7        1.0  0.3881094615769421  0.27222585653790277  0.8942954952425819  1.0000
  C   C8        1.0  0.2188767526361378  0.3359533305173813  0.7978420807445558  1.0000
  C   C9        1.0  0.17978900001372322  0.4374158617060395  0.7385664039084834  1.0000
  C   C10       1.0  0.11142258291734311  0.4282333708220327  0.7621518200617079  1.0000
  C   C11       1.0  0.06857396545978  0.36181455765274917  0.6998451652565971  1.0000
  C   C12       1.0  0.005487424771775891  0.35091310615886273  0.7232791235802526  1.0000
  C   C13       1.0  0.9847594271084502  0.4055290611815421  0.8095500298714398  1.0000
  C   C14       1.0  0.027412300554347697  0.47081505037257565  0.8725036107877283  1.0000
  C   C15       1.0  0.09050664871285537  0.48177611796566155  0.8491439337718845  1.0000
  C   C16       1.0  0.919827646253389  0.39414602887183  0.8336983614251416  1.0000
  N   N2        1.0  0.8676260225895166  0.3849939660254027  0.8531127494908874  1.0000
  O   O1        1.0  0.19203243380461466  0.23859929961266382  0.8353628193769252  1.0000
  H   H1        1.0  0.4123823304672989  0.5140090466099178  0.7156066053594267  1.0000
  H   H2        1.0  0.2979047175290572  0.4999480303211975  0.6927588471653127  1.0000
  H   H3        1.0  0.2984643321067223  0.19360774648505943  0.9294216607477203  1.0000
  H   H4        1.0  0.41332109620586827  0.2083007132812668  0.9503511038222725  1.0000
  H   H5        1.0  0.19813071478332564  0.5310611100579588  0.7582958225282257  1.0000
  H   H6        1.0  0.18463499036623418  0.4306703816001927  0.6546811202054966  1.0000
  H   H7        1.0  0.08403315989826568  0.3183623681646097  0.6332986514724789  1.0000
  H   H8        1.0  0.9729515603755774  0.2996912555120108  0.6743314364604469  1.0000
  H   H9        1.0  0.011946393686408392  0.512929817928379  0.9397077136003551  1.0000
  H   H10       1.0  0.12309290716007819  0.5317904477052446  0.8988578677738268  1.0000
  C   C17       1.0  0.7050536265687833  0.013476169867709513  0.8553087118643427  1.0000
  C   C18       1.0  0.7360740866639656  0.9400883084859104  0.9366225657766248  1.0000
  C   C19       1.0  0.7360740750695643  0.8092060698074  0.9366225188803889  1.0000
  C   C20       1.0  0.7050536179280272  0.7489665738455257  0.8553087564698721  1.0000
  C   C21       1.0  0.6740588317019336  0.822343966362703  0.7740620976884683  1.0000
  C   C22       1.0  0.6740588430401209  0.9532362249320525  0.7740621393052123  1.0000
  H   H11       1.0  0.6736833933875764  0.31883419515402533  0.7730788169992944  1.0000
  H   H12       1.0  0.7603894226756046  0.9837460747306076  0.00036016972345998086  1.0000
  H   H13       1.0  0.7603893447638592  0.755242044238759  0.00036015259447041715  1.0000
  H   H14       1.0  0.6497403248093463  0.7787316280811215  0.7103161715261729  1.0000
  H   H15       1.0  0.6497403080074752  0.0071560666839953786  0.7103161633843295  1.0000
  H   H16       1.0  0.6736836125361834  0.4569048479590315  0.7730785356488269  1.0000
  C   C23       1.0  0.6921936484779677  0.37942031078725985  0.5532632090929771  1.0000
  C   C24       1.0  0.6783234987076646  0.47917019256631704  0.4790204007058865  1.0000
  C   C25       1.0  0.6997597887603657  0.477749692105159  0.3798513299315124  1.0000
  C   C26       1.0  0.735014869858167  0.3762424774827977  0.3529288268992723  1.0000
  C   C27       1.0  0.7494810003226953  0.2772189552562325  0.4270904152592167  1.0000
  C   C28       1.0  0.7280762960463073  0.278535092601496  0.5263023239233737  1.0000
  C   C29       1.0  0.75860951705019  0.3756335200939716  0.24841068855162574  1.0000
  C   C30       1.0  0.8240440110667687  0.37306718222445434  0.23984638831832505  1.0000
  C   C31       1.0  0.8492651285475787  0.3802924740201879  0.14328206746312208  1.0000
  C   C32       1.0  0.809581784444831  0.3904404138368141  0.053968431866186384  1.0000
  C   C33       1.0  0.7444696570268265  0.39184333237901914  0.06078576138042657  1.0000
  C   C34       1.0  0.7179135635341576  0.38302240944946436  0.15735422727833007  1.0000
  H   H17       1.0  0.6683929012107506  0.2810848091723644  0.803526471075009  1.0000
  H   H18       1.0  0.6510219887111198  0.5584793234643576  0.4975712285214091  1.0000
  H   H19       1.0  0.6889587906580737  0.5558977205349043  0.3239995269181561  1.0000
  H   H20       1.0  0.777045555009047  0.19856299652396103  0.407854680171883  1.0000
  H   H21       1.0  0.7396883018937513  0.20053883830625566  0.5818250477297312  1.0000
  H   H22       1.0  0.855740425171509  0.3676910188707634  0.3083659548400033  1.0000
  H   H23       1.0  0.8997333398000694  0.3789779119425247  0.1377205346433854  1.0000
  H   H24       1.0  0.8292928902913402  0.39641961794210673  0.9791357710137318  1.0000
  H   H25       1.0  0.7147607316524194  0.39753466598221016  0.9900534235681842  1.0000
  H   H26       1.0  0.5634549373021355  0.42308801424885323  0.07490187864721398  1.0000
  Zn  Zn1       1.0  0.6363066869763954  0.3796295415822315  0.8562369679214226  1.0000
  Zn  Zn2       1.0  0.7737945224206609  0.38281242628850537  0.8543801080096195  1.0000
  C   C35       1.0  0.7130505684632852  0.37735257325470495  0.04316813357474135  1.0000
  C   C36       1.0  0.6970521465948627  0.3850910100784881  0.6674490230334212  1.0000
  C   C37       1.0  0.7048758742801433  0.6099186909545824  0.8512100369397815  1.0000
  C   C38       1.0  0.7052267961978141  0.1525233870362717  0.859407175139147  1.0000
  O   O2        1.0  0.7508586199731646  0.3881965733070372  0.7050661566323766  1.0000
  O   O3        1.0  0.7635941683289461  0.3766617993697434  0.004141390180107509  1.0000
  O   O4        1.0  0.756992341572205  0.5644618707067526  0.849133878511483  1.0000
  O   O5        1.0  0.757460396531093  0.20039650938252773  0.8600735918135423  1.0000
  O   O6        1.0  0.6526407659478819  0.5620454574033777  0.8505434847457446  1.0000
  O   O7        1.0  0.6592425903667324  0.3742468903238752  0.005550941571849207  1.0000
  O   O8        1.0  0.6465069894013885  0.38578161324844795  0.7064744713887043  1.0000
  O   O9        1.0  0.6531087692400487  0.19798154082660707  0.8614819836855747  1.0000
